<?xml version="1.0"?>
<!-- generated on 2017-02-06 15:06:57.020973 by $Id: route2trips.py 20433 2016-04-13 08:00:14Z behrisch $ -->
<trips>
    <vType id="passenger" vClass="passenger"/>
    <trip id="veh0" depart="0.00" departLane="best" from="25294729#0" to="-136571494#1" type="passenger"/>
    <trip id="veh1" depart="6.83" departLane="best" from="-4610472#2" to="-4412868" type="passenger"/>
    <trip id="veh2" depart="13.66" departLane="best" from="342968607#0" to="310176513#1" type="passenger"/>
    <trip id="veh3" depart="20.49" departLane="best" from="4613308#0" to="-194962998#0" type="passenger"/>
    <trip id="veh4" depart="27.32" departLane="best" from="158023913#0" to="-136571494#5" type="passenger"/>
    <trip id="veh5" depart="34.15" departLane="best" from="-34848160#2" to="195401017#3" type="passenger"/>
    <trip id="veh6" depart="40.98" departLane="best" from="-136571494#2" to="-380240681" type="passenger"/>
    <trip id="veh7" depart="47.81" departLane="best" from="289966097" to="23121445#5" type="passenger"/>
    <trip id="veh8" depart="54.64" departLane="best" from="4610362#5" to="-111833185#0" type="passenger"/>
    <trip id="veh10" depart="68.29" departLane="best" from="-82658674#2" to="-24993933#0" type="passenger"/>
    <trip id="veh11" depart="75.12" departLane="best" from="72157169#0" to="112128418#1" type="passenger"/>
    <trip id="veh12" depart="81.95" departLane="best" from="4610600" to="24913519#1" type="passenger"/>
    <trip id="veh14" depart="95.61" departLane="best" from="23121444" to="77348147" type="passenger"/>
    <trip id="veh15" depart="102.44" departLane="best" from="122820534#0" to="234463931#5" type="passenger"/>
    <trip id="veh16" depart="109.27" departLane="best" from="4610476#1" to="24992424#3" type="passenger"/>
    <trip id="veh17" depart="116.10" departLane="best" from="4611699" to="23851927#2" type="passenger"/>
    <trip id="veh18" depart="122.93" departLane="best" from="327518240" to="-158023913#0" type="passenger"/>
    <trip id="veh19" depart="129.76" departLane="best" from="-19002363#2" to="-4610375#0" type="passenger"/>
    <trip id="veh20" depart="136.59" departLane="best" from="-194962998#1" to="-48664717#0" type="passenger"/>
    <trip id="veh21" depart="143.42" departLane="best" from="24993933#0" to="128396190#4" type="passenger"/>
    <trip id="veh22" depart="150.25" departLane="best" from="114667396#2" to="-43156728" type="passenger"/>
    <trip id="veh23" depart="157.08" departLane="best" from="-454285423#1" to="54048863" type="passenger"/>
    <trip id="veh26" depart="177.56" departLane="best" from="-24243107#2" to="153698390#1" type="passenger"/>
    <trip id="veh27" depart="184.39" departLane="best" from="83517336#3" to="28016312" type="passenger"/>
    <trip id="veh28" depart="191.22" departLane="best" from="234463931#4" to="310357283#0" type="passenger"/>
    <trip id="veh29" depart="198.05" departLane="best" from="4610597#1" to="427637455" type="passenger"/>
    <trip id="veh30" depart="204.88" departLane="best" from="-380240681" to="-137630045" type="passenger"/>
    <trip id="veh31" depart="211.71" departLane="best" from="-51167934#4" to="-4612968#2" type="passenger"/>
    <trip id="veh32" depart="218.54" departLane="best" from="-31313667#2" to="54781811#1" type="passenger"/>
    <trip id="veh33" depart="225.37" departLane="best" from="4612969#2" to="-84960597" type="passenger"/>
    <trip id="veh34" depart="232.20" departLane="best" from="30720544#1" to="15971196#1" type="passenger"/>
    <trip id="veh35" depart="239.03" departLane="best" from="4773465#1" to="19002363#2" type="passenger"/>
    <trip id="veh36" depart="245.86" departLane="best" from="-454285423#1" to="-4610597#0" type="passenger"/>
    <trip id="veh37" depart="252.69" departLane="best" from="23809670#1" to="-4611696#4" type="passenger"/>
    <trip id="veh38" depart="259.52" departLane="best" from="24241797#3" to="461526153" type="passenger"/>
    <trip id="veh39" depart="266.35" departLane="best" from="136571494#4" to="-437325047#2" type="passenger"/>
    <trip id="veh40" depart="273.18" departLane="best" from="84960597" to="195411604" type="passenger"/>
    <trip id="veh41" depart="280.01" departLane="best" from="-194963395" to="25294729#0" type="passenger"/>
    <trip id="veh42" depart="286.83" departLane="best" from="4402228" to="169195795#2" type="passenger"/>
    <trip id="veh43" depart="293.66" departLane="best" from="-168943640#2" to="153698394#1" type="passenger"/>
    <trip id="veh44" depart="300.49" departLane="best" from="84960597" to="22972219#0" type="passenger"/>
    <trip id="veh45" depart="307.32" departLane="best" from="82654055#0" to="4611706" type="passenger"/>
    <trip id="veh46" depart="314.15" departLane="best" from="-128396189#0" to="340498988" type="passenger"/>
    <trip id="veh47" depart="320.98" departLane="best" from="31313667#1" to="23121445#0" type="passenger"/>
    <trip id="veh48" depart="327.81" departLane="best" from="-454285423#1" to="284493291#0" type="passenger"/>
    <trip id="veh49" depart="334.64" departLane="best" from="169195795#7" to="61583423#1" type="passenger"/>
    <trip id="veh50" depart="341.47" departLane="best" from="4773029" to="4612968#1" type="passenger"/>
    <trip id="veh52" depart="355.13" departLane="best" from="246052428" to="-24990040" type="passenger"/>
    <trip id="veh53" depart="361.96" departLane="best" from="386199333#0" to="23121445#1" type="passenger"/>
    <trip id="veh54" depart="368.79" departLane="best" from="43156728" to="22972219#2" type="passenger"/>
    <trip id="veh55" depart="375.62" departLane="best" from="-111251382#0" to="100405009#3" type="passenger"/>
    <trip id="veh56" depart="382.45" departLane="best" from="-128396190#4" to="51167934#5" type="passenger"/>
    <trip id="veh57" depart="389.28" departLane="best" from="4612970#0" to="4610479" type="passenger"/>
    <trip id="veh58" depart="396.11" departLane="best" from="-465376254" to="-168940071#0" type="passenger"/>
    <trip id="veh59" depart="402.93" departLane="best" from="-194069450#0" to="194962998#1" type="passenger"/>
    <trip id="veh60" depart="409.76" departLane="best" from="-183415643" to="42103021#0" type="passenger"/>
    <trip id="veh61" depart="416.59" departLane="best" from="4067932#1" to="-23809670#1" type="passenger"/>
    <trip id="veh62" depart="423.42" departLane="best" from="-454285423#1" to="4612969#0" type="passenger"/>
    <trip id="veh63" depart="430.25" departLane="best" from="158023913#0" to="-43159545" type="passenger"/>
    <trip id="veh66" depart="450.74" departLane="best" from="84960597" to="289830408" type="passenger"/>
    <trip id="veh67" depart="457.57" departLane="best" from="168937986#3" to="202157002#2" type="passenger"/>
    <trip id="veh69" depart="471.23" departLane="best" from="-82658674#0" to="24242882#1" type="passenger"/>
    <trip id="veh70" depart="478.06" departLane="best" from="-387892378" to="-437325047#3" type="passenger"/>
    <trip id="veh71" depart="484.89" departLane="best" from="-183415643" to="25294729#1" type="passenger"/>
    <trip id="veh72" depart="491.72" departLane="best" from="4611696#5" to="-19002363#1" type="passenger"/>
    <trip id="veh73" depart="498.55" departLane="best" from="-427637455" to="30721662#3" type="passenger"/>
    <trip id="veh74" depart="505.38" departLane="best" from="-339201185" to="-23809670#4" type="passenger"/>
    <trip id="veh75" depart="512.20" departLane="best" from="19002357#0" to="437325047#4" type="passenger"/>
    <trip id="veh76" depart="519.03" departLane="best" from="4610362#3" to="-339201185" type="passenger"/>
    <trip id="veh77" depart="525.86" departLane="best" from="-194962997#1" to="171826984#2" type="passenger"/>
    <trip id="veh79" depart="539.52" departLane="best" from="137630045" to="112128418#1" type="passenger"/>
    <trip id="veh80" depart="546.35" departLane="best" from="-25302636#1" to="188386313#1" type="passenger"/>
    <trip id="veh81" depart="553.18" departLane="best" from="158023913#0" to="-48664717#0" type="passenger"/>
    <trip id="veh82" depart="560.01" departLane="best" from="168940071#3" to="4611726" type="passenger"/>
    <trip id="veh83" depart="566.84" departLane="best" from="234463931#0" to="-15977422#0" type="passenger"/>
    <trip id="veh84" depart="573.67" departLane="best" from="84960597" to="4610597#2" type="passenger"/>
    <trip id="veh86" depart="587.33" departLane="best" from="4611690#0" to="-25302636#2" type="passenger"/>
    <trip id="veh87" depart="594.16" departLane="best" from="194069450#1" to="-43159545" type="passenger"/>
    <trip id="veh88" depart="600.99" departLane="best" from="136571494#6" to="-168940071#1" type="passenger"/>
    <trip id="veh89" depart="607.82" departLane="best" from="122820534#0" to="82658674#3" type="passenger"/>
    <trip id="veh90" depart="614.65" departLane="best" from="-454285423#1" to="437325047#4" type="passenger"/>
    <trip id="veh91" depart="621.48" departLane="best" from="72157169#0" to="83517336#2" type="passenger"/>
    <trip id="veh92" depart="628.30" departLane="best" from="234463931#3" to="340498982#4" type="passenger"/>
    <trip id="veh93" depart="635.13" departLane="best" from="23121445#4" to="370359204#1" type="passenger"/>
    <trip id="veh94" depart="641.96" departLane="best" from="195401013#3" to="4611698#1" type="passenger"/>
    <trip id="veh95" depart="648.79" departLane="best" from="-24242882#1" to="61584187#2" type="passenger"/>
    <trip id="veh96" depart="655.62" departLane="best" from="-19002363#2" to="-327518240" type="passenger"/>
    <trip id="veh97" depart="662.45" departLane="best" from="24243052#1" to="310176513#0" type="passenger"/>
    <trip id="veh98" depart="669.28" departLane="best" from="-427637455" to="-234463931#3" type="passenger"/>
    <trip id="veh99" depart="676.11" departLane="best" from="4613292#0" to="-4610524" type="passenger"/>
    <trip id="veh100" depart="682.94" departLane="best" from="24243052#1" to="24992424#3" type="passenger"/>
    <trip id="veh101" depart="689.77" departLane="best" from="156364570#1" to="24241797#0" type="passenger"/>
    <trip id="veh103" depart="703.43" departLane="best" from="-427637455" to="15971196#1" type="passenger"/>
    <trip id="veh104" depart="710.26" departLane="best" from="-51167934#5" to="380240681" type="passenger"/>
    <trip id="veh105" depart="717.09" departLane="best" from="-183415643" to="19002363#2" type="passenger"/>
    <trip id="veh106" depart="723.92" departLane="best" from="84960597" to="83517336#3" type="passenger"/>
    <trip id="veh107" depart="730.75" departLane="best" from="-183415643" to="-43159545" type="passenger"/>
    <trip id="veh108" depart="737.57" departLane="best" from="-454285423#1" to="54048862#2" type="passenger"/>
    <trip id="veh109" depart="744.40" departLane="best" from="114667396#1" to="-24993933#0" type="passenger"/>
    <trip id="veh110" depart="751.23" departLane="best" from="246052428" to="83517332#0" type="passenger"/>
    <trip id="veh111" depart="758.06" departLane="best" from="30720544#0" to="-111833185#0" type="passenger"/>
    <trip id="veh112" depart="764.89" departLane="best" from="4610374" to="-72678525" type="passenger"/>
    <trip id="veh113" depart="771.72" departLane="best" from="30721662#0" to="54781811#1" type="passenger"/>
    <trip id="veh114" depart="778.55" departLane="best" from="-194963395" to="23809670#0" type="passenger"/>
    <trip id="veh115" depart="785.38" departLane="best" from="-4610472#0" to="24913519#1" type="passenger"/>
    <trip id="veh116" depart="792.21" departLane="best" from="340498976#4" to="-43156728" type="passenger"/>
    <trip id="veh117" depart="799.04" departLane="best" from="24993933#0" to="-4612965" type="passenger"/>
    <trip id="veh118" depart="805.87" departLane="best" from="4610597#3" to="-195397561#1" type="passenger"/>
    <trip id="veh119" depart="812.70" departLane="best" from="158023913#0" to="-465376254" type="passenger"/>
    <trip id="veh120" depart="819.53" departLane="best" from="34848160#0" to="234463931#4" type="passenger"/>
    <trip id="veh121" depart="826.36" departLane="best" from="-188914559" to="4613295" type="passenger"/>
    <trip id="veh122" depart="833.19" departLane="best" from="465376254" to="234463928#1" type="passenger"/>
    <trip id="veh123" depart="840.02" departLane="best" from="4610479" to="23852053#1" type="passenger"/>
    <trip id="veh124" depart="846.85" departLane="best" from="-23813206#2" to="-23809670#0" type="passenger"/>
    <trip id="veh125" depart="853.67" departLane="best" from="-48664717#0" to="461526153" type="passenger"/>
    <trip id="veh126" depart="860.50" departLane="best" from="454285423#0" to="4611706" type="passenger"/>
    <trip id="veh127" depart="867.33" departLane="best" from="461526152" to="-43159545" type="passenger"/>
    <trip id="veh128" depart="874.16" departLane="best" from="-437325047#4" to="-23121445#2" type="passenger"/>
    <trip id="veh129" depart="880.99" departLane="best" from="43156728" to="4613295" type="passenger"/>
    <trip id="veh130" depart="887.82" departLane="best" from="153698390#0" to="24992424#3" type="passenger"/>
    <trip id="veh131" depart="894.65" departLane="best" from="-24241797#2" to="51167934#5" type="passenger"/>
    <trip id="veh132" depart="901.48" departLane="best" from="4610362#6" to="4612981" type="passenger"/>
    <trip id="veh133" depart="908.31" departLane="best" from="-136571494#1" to="34848160#2" type="passenger"/>
    <trip id="veh134" depart="915.14" departLane="best" from="-62363401" to="51167934#5" type="passenger"/>
    <trip id="veh135" depart="921.97" departLane="best" from="4610351" to="4612964#0" type="passenger"/>
    <trip id="veh136" depart="928.80" departLane="best" from="4610362#6" to="-4612968#1" type="passenger"/>
    <trip id="veh137" depart="935.63" departLane="best" from="43159545" to="-234463928#0" type="passenger"/>
    <trip id="veh138" depart="942.46" departLane="best" from="4612968#1" to="4611706" type="passenger"/>
    <trip id="veh139" depart="949.29" departLane="best" from="-34848160#2" to="4610362#7" type="passenger"/>
    <trip id="veh140" depart="956.12" departLane="best" from="171826984#3" to="-82658674#5" type="passenger"/>
    <trip id="veh141" depart="962.95" departLane="best" from="454285423#0" to="-4610374" type="passenger"/>
    <trip id="veh142" depart="969.77" departLane="best" from="-136571494#0" to="-34848160#1" type="passenger"/>
    <trip id="veh143" depart="976.60" departLane="best" from="-54781811#1" to="4612964#0" type="passenger"/>
    <trip id="veh144" depart="983.43" departLane="best" from="25302636#2" to="168937986#0" type="passenger"/>
    <trip id="veh145" depart="990.26" departLane="best" from="83517332#0" to="23121444" type="passenger"/>
    <trip id="veh146" depart="997.09" departLane="best" from="60333313" to="-234463931#0" type="passenger"/>
    <trip id="veh147" depart="1003.92" departLane="best" from="82649618#0" to="-31313667#2" type="passenger"/>
    <trip id="veh148" depart="1010.75" departLane="best" from="72157172" to="-4612968#0" type="passenger"/>
    <trip id="veh149" depart="1017.58" departLane="best" from="-194963395" to="171826984#4" type="passenger"/>
    <trip id="veh150" depart="1024.41" departLane="best" from="340498982#4" to="-84960597" type="passenger"/>
    <trip id="veh151" depart="1031.24" departLane="best" from="243854725#0" to="202156994#0" type="passenger"/>
    <trip id="veh152" depart="1038.07" departLane="best" from="128396189#1" to="23851927#2" type="passenger"/>
    <trip id="veh153" depart="1044.90" departLane="best" from="-437325051" to="340498976#6" type="passenger"/>
    <trip id="veh154" depart="1051.73" departLane="best" from="-111251382#1" to="51167934#5" type="passenger"/>
    <trip id="veh155" depart="1058.56" departLane="best" from="23121445#1" to="340498982#7" type="passenger"/>
    <trip id="veh157" depart="1072.22" departLane="best" from="30721662#1" to="111251382#1" type="passenger"/>
    <trip id="veh158" depart="1079.04" departLane="best" from="-51167934#3" to="4611690#2" type="passenger"/>
    <trip id="veh159" depart="1085.87" departLane="best" from="340498976#6" to="-82658671#0" type="passenger"/>
    <trip id="veh160" depart="1092.70" departLane="best" from="-51167934#0" to="168940071#3" type="passenger"/>
    <trip id="veh161" depart="1099.53" departLane="best" from="137630045" to="-72157169#0" type="passenger"/>
    <trip id="veh162" depart="1106.36" departLane="best" from="-23121445#1" to="169195795#10" type="passenger"/>
    <trip id="veh163" depart="1113.19" departLane="best" from="61583423#0" to="310176513#2" type="passenger"/>
    <trip id="veh164" depart="1120.02" departLane="best" from="465376240" to="24992424#0" type="passenger"/>
    <trip id="veh165" depart="1126.85" departLane="best" from="-4612969#1" to="234463931#2" type="passenger"/>
    <trip id="veh166" depart="1133.68" departLane="best" from="-111251382#0" to="-54781811#0" type="passenger"/>
    <trip id="veh167" depart="1140.51" departLane="best" from="158023913#2" to="23851927#2" type="passenger"/>
    <trip id="veh168" depart="1147.34" departLane="best" from="30720544#1" to="190447766#2" type="passenger"/>
    <trip id="veh169" depart="1154.17" departLane="best" from="168940071#2" to="-43159545" type="passenger"/>
    <trip id="veh170" depart="1161.00" departLane="best" from="19002363#0" to="465376240" type="passenger"/>
    <trip id="veh171" depart="1167.83" departLane="best" from="454285423#0" to="-28016312" type="passenger"/>
    <trip id="veh172" depart="1174.66" departLane="best" from="-194069450#0" to="202157002#1" type="passenger"/>
    <trip id="veh175" depart="1195.14" departLane="best" from="-437325047#4" to="194073675#1" type="passenger"/>
    <trip id="veh176" depart="1201.97" departLane="best" from="4611690#1" to="-194069450#0" type="passenger"/>
    <trip id="veh177" depart="1208.80" departLane="best" from="156364553#2" to="25294729#1" type="passenger"/>
    <trip id="veh178" depart="1215.63" departLane="best" from="30720544#2" to="-111833185#0" type="passenger"/>
    <trip id="veh179" depart="1222.46" departLane="best" from="370359204#0" to="42103021#3" type="passenger"/>
    <trip id="veh180" depart="1229.29" departLane="best" from="-194963395" to="169195795#7" type="passenger"/>
    <trip id="veh181" depart="1236.12" departLane="best" from="-24992424#5" to="61583424#2" type="passenger"/>
    <trip id="veh182" depart="1242.95" departLane="best" from="202157002#3" to="-15971189" type="passenger"/>
    <trip id="veh183" depart="1249.78" departLane="best" from="-437325047#4" to="4611690#2" type="passenger"/>
    <trip id="veh185" depart="1263.44" departLane="best" from="24243092#0" to="60333311#2" type="passenger"/>
    <trip id="veh186" depart="1270.27" departLane="best" from="340498976#6" to="195401017#3" type="passenger"/>
    <trip id="veh187" depart="1277.10" departLane="best" from="4610476#1" to="234463931#2" type="passenger"/>
    <trip id="veh188" depart="1283.93" departLane="best" from="46140382" to="35578559" type="passenger"/>
    <trip id="veh189" depart="1290.76" departLane="best" from="19002363#1" to="-4611696#3" type="passenger"/>
    <trip id="veh190" depart="1297.59" departLane="best" from="-437325047#4" to="25302636#3" type="passenger"/>
    <trip id="veh191" depart="1304.41" departLane="best" from="24992424#0" to="-4612981" type="passenger"/>
    <trip id="veh192" depart="1311.24" departLane="best" from="-19002363#1" to="-51167934#4" type="passenger"/>
    <trip id="veh193" depart="1318.07" departLane="best" from="-4610472#0" to="100405009#0" type="passenger"/>
    <trip id="veh194" depart="1324.90" departLane="best" from="23121445#2" to="-24242882#0" type="passenger"/>
    <trip id="veh195" depart="1331.73" departLane="best" from="-42103020#0" to="31313667#3" type="passenger"/>
    <trip id="veh196" depart="1338.56" departLane="best" from="327518240" to="-168942727#1" type="passenger"/>
    <trip id="veh197" depart="1345.39" departLane="best" from="153698390#1" to="23121445#4" type="passenger"/>
    <trip id="veh198" depart="1352.22" departLane="best" from="156364556" to="-43156728" type="passenger"/>
    <trip id="veh200" depart="1365.88" departLane="best" from="24241797#3" to="316746323#0" type="passenger"/>
    <trip id="veh201" depart="1372.71" departLane="best" from="4611696#0" to="42103021#3" type="passenger"/>
    <trip id="veh202" depart="1379.54" departLane="best" from="122820534#0" to="-111833185#0" type="passenger"/>
    <trip id="veh203" depart="1386.37" departLane="best" from="4611696#0" to="61583423#0" type="passenger"/>
    <trip id="veh204" depart="1393.20" departLane="best" from="234463931#0" to="243854725#1" type="passenger"/>
    <trip id="veh205" depart="1400.03" departLane="best" from="-34848160#2" to="-437325047#3" type="passenger"/>
    <trip id="veh206" depart="1406.86" departLane="best" from="168937986#2" to="-136571494#5" type="passenger"/>
    <trip id="veh207" depart="1413.69" departLane="best" from="-82658671#0" to="310176513#2" type="passenger"/>
    <trip id="veh208" depart="1420.51" departLane="best" from="139877314#1" to="-25302636#1" type="passenger"/>
    <trip id="veh209" depart="1427.34" departLane="best" from="176381196" to="-23809670#0" type="passenger"/>
    <trip id="veh210" depart="1434.17" departLane="best" from="24915060#1" to="-136571494#2" type="passenger"/>
    <trip id="veh211" depart="1441.00" departLane="best" from="131505633" to="23813206#2" type="passenger"/>
    <trip id="veh213" depart="1454.66" departLane="best" from="-168940071#0" to="153698390#1" type="passenger"/>
    <trip id="veh214" depart="1461.49" departLane="best" from="-316746323#0" to="100405009#3" type="passenger"/>
    <trip id="veh215" depart="1468.32" departLane="best" from="370359204#1" to="4610479" type="passenger"/>
    <trip id="veh216" depart="1475.15" departLane="best" from="-437325051" to="-194962997#0" type="passenger"/>
    <trip id="veh217" depart="1481.98" departLane="best" from="-128396190#4" to="23121445#1" type="passenger"/>
    <trip id="veh218" depart="1488.81" departLane="best" from="84960597" to="11483007" type="passenger"/>
    <trip id="veh219" depart="1495.64" departLane="best" from="289966097" to="437325047#3" type="passenger"/>
    <trip id="veh221" depart="1509.30" departLane="best" from="61584187#3" to="-387892378" type="passenger"/>
    <trip id="veh222" depart="1516.13" departLane="best" from="-128396190#4" to="-243854725#1" type="passenger"/>
    <trip id="veh223" depart="1522.96" departLane="best" from="-23121445#0" to="30721662#3" type="passenger"/>
    <trip id="veh224" depart="1529.79" departLane="best" from="318282850#0" to="42103021#3" type="passenger"/>
    <trip id="veh225" depart="1536.61" departLane="best" from="-24243107#2" to="24913519#3" type="passenger"/>
    <trip id="veh226" depart="1543.44" departLane="best" from="35578576#0" to="-234463931#0" type="passenger"/>
    <trip id="veh227" depart="1550.27" departLane="best" from="4610374" to="61584187#5" type="passenger"/>
    <trip id="veh228" depart="1557.10" departLane="best" from="-51167934#2" to="310176513#2" type="passenger"/>
    <trip id="veh229" depart="1563.93" departLane="best" from="72157169#0" to="15977422#0" type="passenger"/>
    <trip id="veh230" depart="1570.76" departLane="best" from="340498976#2" to="-194073675#0" type="passenger"/>
    <trip id="veh231" depart="1577.59" departLane="best" from="313647501" to="25294729#0" type="passenger"/>
    <trip id="veh232" depart="1584.42" departLane="best" from="-194962998#1" to="427637455" type="passenger"/>
    <trip id="veh233" depart="1591.25" departLane="best" from="4611690#1" to="24243107#2" type="passenger"/>
    <trip id="veh234" depart="1598.08" departLane="best" from="-202817674#0" to="82658674#2" type="passenger"/>
    <trip id="veh235" depart="1604.91" departLane="best" from="43159545" to="114667396#1" type="passenger"/>
    <trip id="veh236" depart="1611.74" departLane="best" from="158023913#1" to="136571494#3" type="passenger"/>
    <trip id="veh237" depart="1618.57" departLane="best" from="195411602#1" to="112128419#1" type="passenger"/>
    <trip id="veh238" depart="1625.40" departLane="best" from="4611690#1" to="4610472#0" type="passenger"/>
    <trip id="veh239" depart="1632.23" departLane="best" from="24993933#0" to="4610476#2" type="passenger"/>
    <trip id="veh240" depart="1639.06" departLane="best" from="327518240" to="171826985#1" type="passenger"/>
    <trip id="veh241" depart="1645.88" departLane="best" from="342968607#0" to="61584187#5" type="passenger"/>
    <trip id="veh242" depart="1652.71" departLane="best" from="-4610375#0" to="4610362#1" type="passenger"/>
    <trip id="veh243" depart="1659.54" departLane="best" from="168937986#2" to="34848160#0" type="passenger"/>
    <trip id="veh244" depart="1666.37" departLane="best" from="-454285423#1" to="4611698#1" type="passenger"/>
    <trip id="veh245" depart="1673.20" departLane="best" from="4610476#2" to="-194962998#0" type="passenger"/>
    <trip id="veh246" depart="1680.03" departLane="best" from="4612973#0" to="-4610524" type="passenger"/>
    <trip id="veh247" depart="1686.86" departLane="best" from="122820534#0" to="-136571494#5" type="passenger"/>
    <trip id="veh248" depart="1693.69" departLane="best" from="4611696#0" to="-316746323#1" type="passenger"/>
    <trip id="veh249" depart="1700.52" departLane="best" from="-316746323#0" to="4412868" type="passenger"/>
    <trip id="veh250" depart="1707.35" departLane="best" from="-82658674#2" to="4612981" type="passenger"/>
    <trip id="veh251" depart="1714.18" departLane="best" from="318282850#0" to="-461526153" type="passenger"/>
    <trip id="veh252" depart="1721.01" departLane="best" from="-122820534#1" to="60333309#0" type="passenger"/>
    <trip id="veh253" depart="1727.84" departLane="best" from="-194069450#0" to="340498982#7" type="passenger"/>
    <trip id="veh254" depart="1734.67" departLane="best" from="194073675#1" to="42103020#0" type="passenger"/>
    <trip id="veh255" depart="1741.50" departLane="best" from="194962997#0" to="437325051" type="passenger"/>
    <trip id="veh256" depart="1748.33" departLane="best" from="-194962997#1" to="-4402228" type="passenger"/>
    <trip id="veh257" depart="1755.16" departLane="best" from="313647501" to="-82658674#5" type="passenger"/>
    <trip id="veh258" depart="1761.98" departLane="best" from="23852053#1" to="194073675#0" type="passenger"/>
    <trip id="veh259" depart="1768.81" departLane="best" from="22972454" to="169195795#7" type="passenger"/>
    <trip id="veh260" depart="1775.64" departLane="best" from="35578557" to="111251382#1" type="passenger"/>
    <trip id="veh261" depart="1782.47" departLane="best" from="318282850#2" to="-4612969#1" type="passenger"/>
    <trip id="veh262" depart="1789.30" departLane="best" from="-437325051" to="-234463931#4" type="passenger"/>
    <trip id="veh263" depart="1796.13" departLane="best" from="23121444" to="42103021#1" type="passenger"/>
    <trip id="veh264" depart="1802.96" departLane="best" from="-25294729#1" to="-43159545" type="passenger"/>
    <trip id="veh265" depart="1809.79" departLane="best" from="194069450#0" to="344594961" type="passenger"/>
    <trip id="veh266" depart="1816.62" departLane="best" from="82658674#1" to="22972195#0" type="passenger"/>
    <trip id="veh267" depart="1823.45" departLane="best" from="-4611690#0" to="-23121445#0" type="passenger"/>
    <trip id="veh268" depart="1830.28" departLane="best" from="-28016312" to="-4610374" type="passenger"/>
    <trip id="veh269" depart="1837.11" departLane="best" from="-24992424#5" to="-120675240#0" type="passenger"/>
    <trip id="veh270" depart="1843.94" departLane="best" from="23013165#2" to="-4612981" type="passenger"/>
    <trip id="veh271" depart="1850.77" departLane="best" from="82654059#0" to="23809670#0" type="passenger"/>
    <trip id="veh272" depart="1857.60" departLane="best" from="318282850#0" to="-23809670#0" type="passenger"/>
    <trip id="veh275" depart="1878.08" departLane="best" from="-25294729#1" to="-15977422#0" type="passenger"/>
    <trip id="veh276" depart="1884.91" departLane="best" from="61583423#1" to="194962997#1" type="passenger"/>
    <trip id="veh277" depart="1891.74" departLane="best" from="4610375#0" to="168937986#2" type="passenger"/>
    <trip id="veh278" depart="1898.57" departLane="best" from="-188914559" to="25294729#1" type="passenger"/>
    <trip id="veh279" depart="1905.40" departLane="best" from="-168940071#2" to="-243854725#0" type="passenger"/>
    <trip id="veh280" depart="1912.23" departLane="best" from="23809670#2" to="-82658674#2" type="passenger"/>
    <trip id="veh281" depart="1919.06" departLane="best" from="84960597" to="-234463931#2" type="passenger"/>
    <trip id="veh282" depart="1925.89" departLane="best" from="389705415" to="24913519#3" type="passenger"/>
    <trip id="veh283" depart="1932.72" departLane="best" from="437325047#3" to="-4610374" type="passenger"/>
    <trip id="veh284" depart="1939.55" departLane="best" from="202817674#2" to="188914559" type="passenger"/>
    <trip id="veh285" depart="1946.38" departLane="best" from="168940071#3" to="4611706" type="passenger"/>
    <trip id="veh286" depart="1953.21" departLane="best" from="83517336#3" to="-82658674#5" type="passenger"/>
    <trip id="veh287" depart="1960.04" departLane="best" from="344594962" to="60333309#0" type="passenger"/>
    <trip id="veh288" depart="1966.87" departLane="best" from="-31313667#0" to="-43159545" type="passenger"/>
    <trip id="veh289" depart="1973.70" departLane="best" from="30721660#3" to="-24993933#0" type="passenger"/>
    <trip id="veh290" depart="1980.53" departLane="best" from="-24992424#5" to="-194073675#0" type="passenger"/>
    <trip id="veh291" depart="1987.35" departLane="best" from="-111251382#1" to="188914559" type="passenger"/>