<?xml version="1.0" encoding="UTF-8"?>

<!-- generated on Mon Feb  6 15:06:55 2017 by SUMO polyconvert Version svn
<?xml version="1.0" encoding="UTF-8"?>

<configuration xmlns:xsi="http://www.w3.org/2001/XMLSchema-instance" xsi:noNamespaceSchemaLocation="http://sumo.dlr.de/xsd/polyconvertConfiguration.xsd">

    <input>
        <net-file value="/home/ladmin/SUMO/sumo-code-22016-trunk/tools/2017-02-06-15-06-48/osm.net.xml"/>
        <osm-files value="osm_bbox.osm.xml"/>
        <osm.keep-full-type value="true"/>
        <type-file value="/home/ladmin/SUMO/sumo-code-22016-trunk/tools/../data/typemap/osmPolyconvert.typ.xml"/>
    </input>

    <output>
        <output-file value="/home/ladmin/SUMO/sumo-code-22016-trunk/tools/2017-02-06-15-06-48/osm.poly.xml"/>
    </output>

    <processing>
        <poi-layer-offset value="5"/>
    </processing>

    <report>
        <verbose value="true"/>
    </report>

</configuration>
-->

<additional xmlns:xsi="http://www.w3.org/2001/XMLSchema-instance" xsi:noNamespaceSchemaLocation="http://sumo.dlr.de/xsd/additional_file.xsd">
    <location netOffset="-390441.18,-5819268.61" convBoundary="-7008.15,-3887.76,5413.58,3990.58" origBoundary="13.282814,52.477280,13.465648,52.548335" projParameter="+proj=utm +zone=33 +ellps=WGS84 +datum=WGS84 +units=m +no_defs"/>

    <poly id="100575040" type="leisure.park" color="207,245,201" fill="1" layer="-2.00" shape="902.49,1353.23 901.59,1353.04 895.59,1351.60 889.64,1350.11 896.67,1323.45 904.74,1294.70 881.78,1288.91 883.66,1276.94 875.01,1275.58 869.78,1277.45 865.05,1280.36 867.68,1286.45 859.73,1289.56 853.48,1292.05 851.13,1286.47 840.87,1291.49 842.44,1293.08 842.00,1295.35 839.98,1296.27 839.38,1299.53 833.09,1297.55 833.36,1296.21 821.73,1299.19 813.04,1301.48 812.28,1303.05 808.65,1304.04 806.61,1302.95 802.69,1289.74 803.35,1289.50 802.51,1286.42 800.88,1281.83 776.92,1292.87 773.77,1294.44 771.40,1297.70 774.66,1303.22 769.37,1306.04 769.99,1307.09 767.39,1315.35 764.92,1323.23 762.84,1329.80 758.87,1328.19 754.45,1331.07 772.32,1348.02 777.97,1349.47 785.87,1351.57 792.73,1353.32 798.50,1354.80 803.50,1356.12 809.28,1357.61 825.73,1361.88 842.38,1366.01 859.18,1370.19 865.11,1371.71 870.43,1373.07 876.17,1374.53 882.80,1376.22 887.84,1377.53 894.37,1379.16 895.43,1379.43 897.29,1372.33 902.49,1353.23"/>
    <poly id="100950874" type="building.commercial" color="255,230,230" fill="1" layer="-1.00" shape="1207.14,1060.32 1187.81,1051.78 1183.67,1041.46 1195.40,1021.09 1208.75,1028.32 1207.14,1060.32"/>
    <poly id="100950876" type="building.commercial" color="255,230,230" fill="1" layer="-1.00" shape="1245.48,1002.09 1241.54,1008.67 1231.91,1024.79 1232.00,1068.93 1232.55,1074.42 1233.92,1078.32 1235.87,1081.74 1238.51,1084.98 1244.02,1088.65 1266.81,1097.97 1298.32,1030.57 1245.48,1002.09"/>
    <poly id="100950877" type="building.commercial" color="255,230,230" fill="1" layer="-1.00" shape="1277.33,1037.18 1257.63,1079.06 1251.38,1076.88 1248.71,1075.25 1247.10,1072.40 1246.05,1066.93 1247.76,1035.26 1273.16,1035.35 1277.33,1037.18"/>
    <poly id="100950878" type="building.commercial" color="255,230,230" fill="1" layer="-1.00" shape="1216.11,1078.38 1221.43,1064.56 1221.58,1061.17 1222.85,1032.64 1222.77,1028.74 1221.23,1024.06 1218.74,1019.96 1214.79,1016.17 1210.84,1014.37 1199.65,1008.44 1189.35,1003.00 1170.10,1037.13 1168.32,1043.19 1168.32,1048.99 1170.17,1055.50 1176.94,1063.05 1216.11,1078.38"/>
    <poly id="102522991" type="landuse.construction" color="194,194,130" fill="1" layer="-3.00" shape="1593.38,719.11 1581.53,732.79 1532.28,698.09 1500.53,674.92 1505.48,668.26 1480.57,650.68 1502.91,620.73 1546.90,655.37 1554.10,653.41 1598.77,687.77 1595.79,692.13 1603.93,698.88 1593.38,719.11"/>
    <poly id="104393532" type="building.yes" color="255,230,230" fill="1" layer="-1.00" shape="88.26,1293.61 127.70,1267.86 129.07,1261.04 101.00,1254.24 98.00,1266.07 113.26,1269.67 91.99,1283.52 86.55,1291.49 88.26,1293.61"/>
    <poly id="104786904" type="leisure.park" color="207,245,201" fill="1" layer="-2.00" shape="568.20,691.06 572.80,636.81 553.39,635.19 548.80,689.42 568.20,691.06"/>
    <poly id="104786906" type="building.yes" color="255,230,230" fill="1" layer="-1.00" shape="581.63,803.21 644.95,814.80 637.95,824.89 634.26,829.68 629.79,835.48 627.88,837.96 613.78,837.03 602.40,836.29 603.00,829.12 624.51,830.79 625.84,823.77 585.98,817.04 584.47,818.12 582.62,827.46 583.65,828.63 583.45,829.64 582.60,830.04 582.38,834.74 578.89,834.52 575.59,834.29 575.99,832.19 579.32,815.81 581.01,806.89 581.63,803.21"/>
    <poly id="104786907" type="building.residential" color="255,230,230" fill="1" layer="-1.00" shape="610.75,784.88 609.60,797.85 569.08,790.67 571.48,757.62 586.00,758.85 587.04,745.40 600.86,746.91 600.10,756.71 590.63,756.32 590.37,759.38 592.62,759.61 591.57,771.62 598.64,772.35 598.21,777.65 597.87,783.84 610.75,784.88"/>
    <poly id="104786910" type="building.yes" color="255,230,230" fill="1" layer="-1.00" shape="688.12,811.65 700.79,795.08 684.69,782.50 685.40,781.58 684.62,780.98 687.69,776.98 688.40,777.52 689.35,776.30 693.30,779.34 694.06,778.35 710.84,791.25 718.10,781.94 728.16,785.03 707.99,811.15 700.50,820.87 688.12,811.65"/>
    <poly id="104786915" type="building.yes" color="255,230,230" fill="1" layer="-1.00" shape="686.25,804.78 672.72,802.36 671.61,808.61 685.11,811.11 686.25,804.78"/>
    <poly id="104786916" type="building.yes" color="255,230,230" fill="1" layer="-1.00" shape="714.28,736.99 709.14,754.39 747.35,764.84 749.51,759.17 752.15,751.28 747.49,747.64 744.68,745.77 738.54,743.65 726.03,740.39 714.28,736.99"/>
    <poly id="104991245" type="building.yes" color="255,230,230" fill="1" layer="-1.00" shape="606.24,1115.85 592.67,1120.41 596.25,1131.03 610.07,1171.98 623.64,1167.43 606.24,1115.85"/>
    <poly id="104991246" type="building.yes" color="255,230,230" fill="1" layer="-1.00" shape="496.22,1164.18 494.94,1160.53 510.16,1155.15 511.45,1158.71 496.22,1164.18"/>
    <poly id="105187865" type="building.yes" color="255,230,230" fill="1" layer="-1.00" shape="106.16,684.15 204.58,691.66 197.51,758.97 195.55,780.48 193.57,802.09 55.83,790.67 45.69,789.83 9.77,786.85 16.82,710.24 52.18,712.98 51.44,721.25 26.33,719.22 24.23,744.50 49.25,746.53 48.72,752.96 48.29,758.11 26.36,756.39 24.27,781.55 46.15,783.35 47.09,772.05 57.59,772.96 56.63,784.05 72.10,785.27 73.22,771.34 84.33,772.26 84.76,767.00 106.77,768.82 105.97,778.47 169.85,783.75 174.08,732.89 184.95,733.78 186.07,720.40 136.42,716.30 137.34,705.22 122.61,704.01 120.54,728.93 102.57,727.45 105.38,693.58 106.16,684.15"/>
    <poly id="105187865#1" type="landuse.commercial" color="209,209,204" fill="1" layer="-3.00" shape="106.16,684.15 204.58,691.66 197.51,758.97 195.55,780.48 193.57,802.09 55.83,790.67 45.69,789.83 9.77,786.85 16.82,710.24 52.18,712.98 51.44,721.25 26.33,719.22 24.23,744.50 49.25,746.53 48.72,752.96 48.29,758.11 26.36,756.39 24.27,781.55 46.15,783.35 47.09,772.05 57.59,772.96 56.63,784.05 72.10,785.27 73.22,771.34 84.33,772.26 84.76,767.00 106.77,768.82 105.97,778.47 169.85,783.75 174.08,732.89 184.95,733.78 186.07,720.40 136.42,716.30 137.34,705.22 122.61,704.01 120.54,728.93 102.57,727.45 105.38,693.58 106.16,684.15"/>
    <poly id="105187866" type="building.yes" color="255,230,230" fill="1" layer="-1.00" shape="120.54,728.93 118.10,758.31 107.72,757.46 106.77,768.82 84.76,767.00 85.30,760.54 75.75,759.75 76.56,750.01 77.31,740.92 101.28,742.90 102.57,727.45 120.54,728.93"/>
    <poly id="105187866#1" type="landuse.commercial" color="209,209,204" fill="1" layer="-3.00" shape="120.54,728.93 118.10,758.31 107.72,757.46 106.77,768.82 84.76,767.00 85.30,760.54 75.75,759.75 76.56,750.01 77.31,740.92 101.28,742.90 102.57,727.45 120.54,728.93"/>
    <poly id="105733615" type="building.yes" color="255,230,230" fill="1" layer="-1.00" shape="217.80,1187.16 219.24,1169.02 232.16,1169.80 230.45,1188.89 217.80,1187.16"/>
    <poly id="105733616" type="building.residential" color="255,230,230" fill="1" layer="-1.00" shape="164.18,1185.38 163.99,1187.89 163.79,1190.41 162.30,1190.33 142.14,1188.52 133.07,1187.71 127.32,1187.18 125.49,1187.01 118.32,1186.36 110.94,1182.45 113.48,1177.56 113.96,1177.81 116.27,1172.41 122.52,1175.72 126.42,1176.05 147.71,1177.84 148.29,1170.59 149.08,1160.63 150.28,1160.72 162.72,1161.69 164.65,1161.84 164.64,1161.96 166.15,1162.13 165.71,1167.14 164.22,1167.02 163.96,1170.20 162.71,1185.27 164.18,1185.38"/>
    <poly id="105733620" type="building.commercial" color="255,230,230" fill="1" layer="-1.00" shape="160.23,1215.31 130.96,1212.83 133.07,1187.71 142.14,1188.52 162.30,1190.33 161.26,1202.83 160.23,1215.31"/>
    <poly id="105733622" type="building.yes" color="255,230,230" fill="1" layer="-1.00" shape="223.08,1201.28 238.58,1202.63 239.55,1189.75 232.87,1189.21 232.62,1191.43 230.28,1191.01 230.45,1188.89 217.80,1187.16 216.93,1198.98 215.47,1199.95 217.57,1202.67 222.91,1202.98 223.08,1201.28"/>
    <poly id="105733627" type="building.residential" color="255,230,230" fill="1" layer="-1.00" shape="104.63,1187.83 104.54,1188.23 103.31,1188.97 102.41,1192.56 100.68,1192.13 88.01,1188.96 87.85,1188.92 87.73,1188.89 90.47,1183.61 90.73,1183.75 93.09,1179.21 98.18,1169.45 113.48,1177.56 110.94,1182.45 107.74,1180.73 105.99,1181.39 103.45,1186.19 104.38,1187.75 104.63,1187.83"/>
    <poly id="105733628" type="building.residential" color="255,230,230" fill="1" layer="-1.00" shape="158.33,1237.87 129.07,1235.41 130.64,1216.78 130.96,1212.83 160.23,1215.31 160.12,1216.57 160.97,1216.64 160.71,1219.68 159.86,1219.61 159.28,1226.59 158.68,1233.65 159.53,1233.72 159.26,1236.77 158.43,1236.70 158.33,1237.87"/>
    <poly id="105733634" type="building.yes" color="255,230,230" fill="1" layer="-1.00" shape="252.88,1133.84 247.50,1133.31 245.79,1157.45 233.25,1156.33 223.16,1155.53 201.21,1153.99 199.58,1151.71 202.34,1118.64 204.31,1116.95 244.22,1120.18 254.20,1121.11 254.09,1121.93 252.88,1133.84"/>
    <poly id="105733636" type="building.yes" color="255,230,230" fill="1" layer="-1.00" shape="128.55,1241.59 129.07,1235.41 158.33,1237.87 157.96,1242.52 157.59,1247.17 156.16,1248.30 145.52,1245.72 128.55,1241.59"/>
    <poly id="105733640" type="building.residential" color="255,230,230" fill="1" layer="-1.00" shape="111.37,1168.22 111.77,1170.03 116.27,1172.41 113.96,1177.81 113.54,1177.60 98.18,1169.45 97.91,1169.31 102.27,1160.98 106.63,1152.64 106.89,1152.78 117.79,1158.62 113.64,1166.49 112.16,1166.73 111.37,1168.22"/>
    <poly id="105733641" type="building.yes" color="255,230,230" fill="1" layer="-1.00" shape="274.25,1123.30 269.22,1122.99 254.09,1121.93 252.88,1133.84 252.78,1134.41 274.54,1136.29 275.48,1125.41 274.25,1123.30"/>
    <poly id="105733647" type="building.yes" color="255,230,230" fill="1" layer="-1.00" shape="256.52,1204.07 238.58,1202.63 239.55,1189.75 257.79,1191.33 256.52,1204.07"/>
    <poly id="105733649" type="building.yes" color="255,230,230" fill="1" layer="-1.00" shape="140.77,1087.54 141.03,1087.04 141.42,1086.63 141.87,1086.30 142.38,1086.06 142.93,1085.93 143.49,1085.89 144.05,1085.97 144.58,1086.15 145.07,1086.43 155.56,1096.81 168.43,1109.54 168.64,1109.91 168.78,1110.32 168.86,1110.75 166.41,1140.57 165.10,1156.35 164.65,1161.84 162.72,1161.69 150.28,1160.72 149.08,1160.63 149.25,1159.14 129.19,1148.60 132.04,1143.31 118.74,1134.46 117.06,1133.34 116.85,1133.20 124.58,1118.45 140.77,1087.54"/>
    <poly id="105733654" type="building.residential" color="255,230,230" fill="1" layer="-1.00" shape="114.05,1138.54 116.85,1133.20 117.06,1133.34 118.74,1134.46 132.04,1143.31 129.19,1148.60 125.56,1146.69 123.76,1147.30 117.79,1158.62 106.89,1152.78 111.97,1143.06 114.28,1138.66 114.05,1138.54"/>
    <poly id="105733655" type="building.yes" color="255,230,230" fill="1" layer="-1.00" shape="219.24,1169.02 220.06,1158.26 222.83,1158.56 223.16,1155.53 233.25,1156.33 232.16,1169.80 219.24,1169.02"/>
    <poly id="105733781" type="building.apartments" color="255,230,230" fill="1" layer="-1.00" shape="406.23,1237.08 406.66,1243.16 400.58,1243.04 400.82,1237.16 389.03,1236.71 389.50,1223.06 405.13,1223.59 406.23,1237.08"/>
    <poly id="105733782" type="building.apartments" color="255,230,230" fill="1" layer="-1.00" shape="389.03,1236.71 388.71,1242.75 386.70,1242.74 386.99,1250.17 387.02,1251.61 381.04,1251.45 381.22,1241.55 382.12,1241.48 382.63,1239.48 381.19,1237.30 370.74,1236.92 369.85,1238.72 370.01,1241.20 369.72,1241.22 369.74,1251.31 363.98,1251.27 364.60,1239.12 365.49,1222.38 389.50,1223.06 389.03,1236.71"/>
    <poly id="105733783" type="building.apartments" color="255,230,230" fill="1" layer="-1.00" shape="316.01,1264.62 327.35,1265.98 329.28,1257.16 332.68,1257.80 332.96,1255.89 329.70,1255.22 330.56,1251.30 319.73,1249.95 316.01,1264.62"/>
    <poly id="105733783#1" type="tourism.hostel" color="207,245,201" fill="1" layer="-2.00" shape="316.01,1264.62 327.35,1265.98 329.28,1257.16 332.68,1257.80 332.96,1255.89 329.70,1255.22 330.56,1251.30 319.73,1249.95 316.01,1264.62"/>
    <poly id="105733786" type="building.apartments" color="255,230,230" fill="1" layer="-1.00" shape="433.38,1275.75 431.99,1239.33 430.49,1239.51 430.41,1238.02 420.47,1237.74 420.59,1239.93 417.15,1239.96 418.53,1271.12 419.99,1271.05 420.23,1276.16 433.38,1275.75"/>
    <poly id="105733787" type="building.apartments" color="255,230,230" fill="1" layer="-1.00" shape="430.41,1238.02 431.18,1224.37 405.13,1223.59 406.23,1237.08 420.47,1237.74 430.41,1238.02"/>
    <poly id="105733789" type="amenity.theatre" color="237,199,199" fill="1" layer="-1.00" shape="341.35,1267.54 327.35,1265.98 316.01,1264.62 305.71,1312.69 335.31,1311.17 335.96,1305.81 341.35,1267.54"/>
    <poly id="105733789#1" type="building.apartments" color="255,230,230" fill="1" layer="-1.00" shape="341.35,1267.54 327.35,1265.98 316.01,1264.62 305.71,1312.69 335.31,1311.17 335.96,1305.81 341.35,1267.54"/>
    <poly id="105733790" type="building.dormitory" color="255,230,230" fill="1" layer="-1.00" shape="471.92,1245.38 476.67,1258.89 461.14,1261.36 453.37,1262.39 452.23,1257.31 462.68,1254.54 460.66,1248.60 471.92,1245.38"/>
    <poly id="105733791" type="building.apartments" color="255,230,230" fill="1" layer="-1.00" shape="462.83,1303.00 434.44,1304.16 433.91,1291.86 460.01,1290.78 462.83,1303.00"/>
    <poly id="105733792" type="building.apartments" color="255,230,230" fill="1" layer="-1.00" shape="458.07,1238.91 430.41,1238.02 431.18,1224.37 464.94,1225.36 471.92,1245.38 460.66,1248.60 458.07,1238.91"/>
    <poly id="105733793" type="building.apartments" color="255,230,230" fill="1" layer="-1.00" shape="481.50,1272.59 491.05,1299.76 489.40,1301.89 462.83,1303.00 460.01,1290.78 458.47,1283.88 465.52,1283.52 465.80,1291.04 476.50,1291.02 476.30,1287.15 473.07,1280.92 472.33,1281.16 470.57,1276.07 468.90,1272.92 481.50,1272.59"/>
    <poly id="105733794" type="building.apartments" color="255,230,230" fill="1" layer="-1.00" shape="433.91,1291.86 433.38,1275.75 420.23,1276.16 417.27,1276.38 417.63,1288.01 416.51,1289.19 388.35,1290.02 388.84,1305.99 434.44,1304.16 433.91,1291.86"/>
    <poly id="105733795" type="building.apartments" color="255,230,230" fill="1" layer="-1.00" shape="476.67,1258.89 481.50,1272.59 468.90,1272.92 462.20,1273.11 461.14,1261.36 476.67,1258.89"/>
    <poly id="105733796" type="building.yes" color="255,230,230" fill="1" layer="-1.00" shape="387.84,1276.48 387.02,1251.61 386.99,1250.17 394.20,1250.25 394.64,1276.17 387.84,1276.48"/>
    <poly id="105733797" type="building.apartments" color="255,230,230" fill="1" layer="-1.00" shape="319.73,1249.95 325.09,1222.61 327.98,1220.73 365.49,1222.38 364.60,1239.12 344.17,1238.44 343.89,1244.09 342.16,1245.93 341.47,1250.67 341.87,1251.13 341.59,1253.10 332.61,1252.36 332.81,1251.61 330.56,1251.30 319.73,1249.95"/>
    <poly id="106845276" type="building.yes" color="255,230,230" fill="1" layer="-1.00" shape="362.43,1305.15 335.96,1305.81 341.35,1267.54 363.52,1266.04 362.43,1305.15"/>
    <poly id="109089263" type="building.residential" color="255,230,230" fill="1" layer="-1.00" shape="956.35,1227.92 958.07,1245.52 959.81,1245.33 960.96,1258.62 960.29,1258.73 958.97,1265.90 964.60,1266.99 972.69,1230.26 972.18,1229.68 973.00,1227.10 970.67,1227.43 970.14,1226.56 956.35,1227.92"/>
    <poly id="109089264" type="building.residential" color="255,230,230" fill="1" layer="-1.00" shape="938.44,1260.27 944.08,1260.19 944.07,1259.71 949.46,1259.67 949.47,1260.12 954.79,1260.10 953.15,1242.19 951.90,1241.33 938.97,1242.12 937.62,1243.32 938.44,1260.27"/>
    <poly id="11548677" type="waterway.riverbank" color="181,209,209" fill="1" layer="-4.00" shape="558.32,1029.59 556.05,1033.61 550.66,1036.00 569.67,1055.14 576.09,1051.36 575.30,1048.11 576.56,1045.86 577.12,1044.85 574.88,1043.04 584.31,1031.54 586.90,1033.71 600.83,1017.92 600.05,1017.07 608.78,1006.20 609.98,1005.40 610.44,1005.68 645.87,963.23 645.59,962.97 645.47,962.69 645.60,962.11 654.42,951.25 655.06,951.09 655.57,951.18 656.05,951.49 656.33,951.12 657.92,950.67 660.15,947.97 672.43,932.54 673.25,931.51 677.59,926.06 709.56,886.49 717.64,876.64 752.26,834.32 753.18,831.74 824.11,761.04 867.86,672.03 915.89,569.19 919.88,529.06 916.20,527.15 910.24,493.44 914.99,483.49 927.48,480.54 941.01,484.64 964.86,447.67 948.32,435.40 953.13,428.87 955.06,430.22 957.10,425.18 956.33,421.04 953.05,417.22 977.06,385.09 975.11,371.23 979.05,364.15 1000.63,307.80 1015.52,271.04 1068.67,161.36 1085.56,124.20 1086.22,122.76 1089.89,116.50 1127.60,52.38 1171.00,-18.68 1203.05,-75.65 1214.29,-96.12 1225.37,-108.86 1238.26,-117.07 1244.53,-120.30 1290.91,-133.92 1359.74,-125.88 1379.22,-121.03 1400.62,-112.33 1460.28,-86.17 1511.23,-54.00 1520.02,-46.53 1551.10,-28.14 1596.01,-0.12 1631.53,19.54 1659.08,40.99 1681.72,72.73 1718.10,42.94 1688.22,25.89 1555.52,-43.95 1548.01,-50.97 1537.60,-58.50 1534.90,-60.46 1518.51,-72.31 1476.70,-100.77 1424.50,-126.97 1412.16,-131.56 1390.08,-139.58 1383.42,-143.00 1381.02,-143.91 1359.39,-148.50 1296.34,-156.25 1250.80,-154.15 1230.02,-152.30 1225.75,-151.51 1223.22,-150.54 1220.16,-148.70 1217.22,-146.32 1215.11,-144.36 1213.52,-142.42 1212.26,-140.65 1193.83,-105.17 1186.18,-90.52 1072.23,105.38 1066.70,115.15 1013.44,221.35 999.09,263.47 960.89,358.66 952.85,374.97 874.70,526.35 869.98,563.50 841.96,669.23 823.44,719.81 825.07,723.49 822.54,728.12 809.39,749.22 807.60,749.02 798.52,765.26 744.49,804.63 651.03,917.14 638.76,932.02 626.64,946.43 567.92,1017.81 570.58,1020.04 561.02,1031.77 558.32,1029.59"/>
    <poly id="11548679" type="waterway.riverbank" color="181,209,209" fill="1" layer="-4.00" shape="569.67,1055.14 569.09,1057.99 569.78,1060.49 571.01,1062.37 573.09,1064.23 575.80,1064.56 581.86,1061.06 582.54,1062.70 583.24,1063.73 584.33,1064.40 585.73,1064.57 586.94,1064.17 588.19,1063.47 603.39,1059.45 618.64,1054.87 620.70,1054.81 623.13,1054.50 623.24,1055.27 632.08,1053.33 637.29,1052.20 637.60,1051.93 637.87,1051.62 637.87,1051.04 692.14,1039.62 692.28,1040.04 701.59,1038.07 706.24,1037.36 737.54,1031.20 775.56,1011.36 777.27,1010.48 849.93,984.07 911.71,958.17 983.60,863.79 995.98,871.81 1011.93,848.20 1006.14,844.40 1013.61,838.52 1054.99,802.36 1059.13,796.21 1106.28,727.38 1118.37,701.96 1128.46,678.86 1129.44,676.55 1129.50,671.97 1132.09,665.35 1136.02,657.54 1143.98,646.73 1148.80,643.21 1259.42,460.78 1261.82,455.45 1262.23,450.83 1256.86,445.16 1302.11,381.76 1333.68,336.41 1330.04,333.76 1348.34,305.85 1392.48,348.03 1373.72,362.82 1338.87,406.31 1293.55,471.07 1274.86,500.20 1269.14,508.32 1269.65,524.87 1248.68,559.05 1235.68,580.22 1219.72,589.79 1217.35,594.72 1210.86,606.62 1209.52,605.89 1207.59,609.43 1208.93,610.16 1190.56,643.50 1190.93,644.44 1180.14,663.50 1178.87,664.16 1174.95,663.67 1171.85,663.73 1171.11,664.05 1156.91,687.73 1157.17,689.83 1157.79,692.05 1159.45,693.60 1161.30,696.17 1160.25,698.82 1156.69,705.45 1155.60,707.97 1154.16,711.23 1141.61,733.63 1103.78,801.13 1080.63,843.89 1079.93,843.44 1075.61,851.63 1076.16,851.88 1060.68,879.41 1060.39,879.92 1059.80,880.31 1059.24,880.37 1058.76,880.23 1057.80,879.68 1058.43,878.75 1055.25,876.64 1054.32,878.04 1039.05,900.21 1044.84,903.72 1046.69,906.23 1046.30,909.62 1035.20,930.27 1024.59,946.60 1011.02,958.82 1000.50,964.99 931.82,992.38 930.87,990.41 819.95,1036.74 797.40,1048.17 746.60,1066.48 708.92,1077.31 617.51,1096.83 602.37,1100.20 532.66,1112.45 466.13,1119.75 452.20,1121.18 419.74,1122.39 368.45,1119.73 274.04,1113.45 197.99,1106.74 196.35,1104.77 171.54,1088.86 99.53,1016.92 14.48,937.09 -37.82,891.93 -81.46,869.01 -187.80,820.43 -246.25,794.85 -257.67,789.37 -323.67,784.26 -358.56,782.37 -388.99,780.30 -417.96,781.41 -427.51,782.78 -441.54,785.77 -454.48,789.92 -465.89,794.14 -478.93,800.00 -491.30,806.55 -502.62,812.98 -513.44,819.76 -524.11,827.19 -533.38,834.93 -541.02,841.64 -545.71,846.78 -548.61,850.09 -553.86,856.89 -557.64,862.03 -562.98,870.86 -566.55,878.33 -569.28,884.83 -571.73,893.23 -573.87,905.70 -575.91,922.95 -578.25,941.40 -580.45,960.45 -583.24,982.33 -585.11,992.59 -587.37,1002.14 -593.69,1022.18 -599.92,1038.40 -607.81,1057.79 -619.07,1077.77 -623.80,1084.46 -627.04,1088.22 -631.79,1092.89 -637.61,1098.77 -661.50,1118.89 -696.25,1080.96 -681.67,1066.72 -674.53,1059.85 -669.56,1052.84 -662.94,1043.51 -650.84,1022.73 -636.09,994.55 -631.12,982.06 -627.89,955.20 -625.26,935.45 -618.58,881.44 -604.34,845.29 -594.48,829.97 -583.65,816.64 -579.96,812.78 -562.95,796.84 -531.70,775.65 -518.76,767.62 -506.55,761.10 -498.03,756.85 -479.92,749.10 -462.33,742.56 -442.04,736.33 -427.77,732.98 -414.88,730.35 -396.89,728.01 -379.48,726.61 -366.11,726.10 -353.63,726.15 -351.82,728.20 -329.71,730.70 -292.59,736.54 -268.85,741.52 -245.38,747.94 -218.21,757.62 -190.72,768.39 -143.32,791.22 -109.20,806.80 -75.12,822.35 -40.63,838.53 -9.20,855.04 -8.13,853.38 98.68,952.56 97.44,953.86 104.06,960.15 110.71,966.48 111.95,965.19 152.05,1002.84 150.73,1004.27 155.86,1008.93 160.93,1013.63 162.25,1012.20 170.74,1019.99 206.55,1048.11 224.59,1055.44 226.39,1056.00 273.73,1062.48 273.60,1065.14 276.72,1065.29 276.85,1062.63 316.86,1064.63 338.86,1065.80 365.27,1067.40 398.46,1067.90 432.58,1066.51 451.85,1064.99 494.09,1059.65 514.51,1050.98 550.66,1036.00 569.67,1055.14"/>
    <poly id="120456813" type="landuse.commercial" color="209,209,204" fill="1" layer="-3.00" shape="361.65,1046.18 365.57,990.33 296.68,982.62 296.48,986.18 296.07,993.30 295.87,996.85 295.25,1006.81 296.41,1007.00 295.27,1022.80 294.32,1034.79 293.55,1034.72 293.03,1044.03 324.78,1045.02 349.46,1045.43 361.65,1046.18"/>
    <poly id="120456814" type="amenity.university" color="237,199,199" fill="1" layer="-1.00" shape="377.01,819.54 450.88,825.83 455.79,768.13 485.63,770.43 478.70,813.14 477.74,827.12 519.08,831.18 527.73,719.36 625.70,728.42 645.54,557.07 495.22,543.43 490.64,595.64 479.49,733.88 400.93,726.58 400.63,730.41 399.85,739.46 392.32,738.81 387.46,795.19 387.39,795.97 385.91,795.85 365.99,794.14 365.35,801.56 373.35,802.25 373.47,800.85 377.75,801.22 377.63,802.64 378.44,802.72 377.27,816.27 377.01,819.54"/>
    <poly id="121673258" type="landuse.construction" color="194,194,130" fill="1" layer="-3.00" shape="957.10,425.18 955.06,430.22 953.13,428.87 948.32,435.40 964.86,447.67 941.01,484.64 927.48,480.54 914.99,483.49 910.24,493.44 916.20,527.15 920.12,538.92 938.94,540.38 936.04,544.08 949.25,546.87 961.84,550.90 974.86,555.73 998.49,570.29 1025.98,530.87 1046.53,545.75 1028.90,570.78 1142.93,638.49 1226.18,502.26 1243.45,469.67 1166.20,422.88 1086.52,375.29 1081.73,371.88 1074.92,371.16 1068.57,374.01 1047.41,401.80 987.52,360.96 982.57,358.71 979.05,364.15 990.36,373.34 986.59,379.97 988.36,381.56 985.78,384.07 981.35,385.71 977.06,385.09 953.05,417.22 956.33,421.04 957.10,425.18"/>
    <poly id="121674597" type="landuse.construction" color="194,194,130" fill="1" layer="-3.00" shape="688.96,366.11 702.98,367.46 736.50,370.08 750.95,371.43 757.75,325.11 682.68,317.83 667.94,316.26 663.05,374.44 623.53,385.23 583.53,381.85 574.74,499.77 573.87,511.68 657.04,518.71 657.57,511.99 670.98,513.42 671.73,500.96 674.84,459.48 684.05,459.89 685.34,401.63 686.24,400.42 688.96,366.11"/>
    <poly id="121717655" type="building.yes" color="255,230,230" fill="1" layer="-1.00" shape="789.21,751.99 796.94,739.74 763.62,718.34 758.81,732.26 779.27,744.81 778.40,746.12 789.21,751.99"/>
    <poly id="121717655#1" type="tourism.artwork" color="207,245,201" fill="1" layer="-2.00" shape="789.21,751.99 796.94,739.74 763.62,718.34 758.81,732.26 779.27,744.81 778.40,746.12 789.21,751.99"/>
    <poly id="121717656" type="landuse.construction" color="194,194,130" fill="1" layer="-3.00" shape="834.07,748.85 824.39,761.37 766.02,815.78 753.43,832.24 792.89,863.26 863.39,767.69 852.47,760.68 838.98,752.00 834.07,748.85"/>
    <poly id="121717767" type="leisure.park" color="207,245,201" fill="1" layer="-2.00" shape="886.79,839.76 912.16,857.52 913.49,855.91 912.37,854.50 911.98,853.05 912.09,851.66 912.92,850.15 914.26,849.10 915.87,848.76 917.21,848.99 918.39,850.01 920.77,847.14 923.25,849.20 924.01,848.24 925.77,847.31 927.56,847.39 929.13,848.56 930.05,850.06 930.44,851.59 929.99,853.11 929.20,854.10 932.44,856.77 930.26,859.39 931.41,860.45 932.02,861.75 931.76,863.25 930.99,864.48 929.67,865.39 928.07,865.68 926.69,865.41 925.88,864.67 923.82,867.16 943.09,880.93 901.14,937.53 911.29,945.24 976.84,859.16 905.91,813.07 886.79,839.76"/>
    <poly id="123074181" type="tourism.attraction" color="207,245,201" fill="0" layer="-2.00" shape="1085.89,1090.11 1117.75,1098.32 1209.07,1131.91 1210.46,1127.94 1229.21,1134.64 1249.16,1142.54"/>
    <poly id="125513279" type="building.yes" color="255,230,230" fill="1" layer="-1.00" shape="1397.76,467.50 1398.32,467.90 1382.30,487.57 1370.53,479.05 1367.54,476.90 1376.01,466.89 1359.80,455.19 1364.58,448.56 1385.70,463.80 1388.07,460.51 1397.76,467.50"/>
    <poly id="125513281" type="building.yes" color="255,230,230" fill="1" layer="-1.00" shape="1329.27,461.35 1338.76,468.19 1341.04,465.04 1327.88,455.54 1339.83,438.98 1346.61,443.88 1345.90,444.87 1352.35,449.51 1342.77,462.79 1350.36,468.27 1359.80,455.19 1364.58,448.56 1347.92,436.53 1333.86,426.38 1324.35,439.56 1315.69,451.54 1317.42,452.80 1329.27,461.35"/>
    <poly id="125513285" type="building.yes" color="255,230,230" fill="1" layer="-1.00" shape="1422.92,432.34 1382.71,403.28 1375.38,413.52 1378.47,415.95 1377.23,417.64 1372.74,416.62 1345.65,410.52 1341.63,416.02 1351.02,422.89 1351.76,421.95 1382.49,428.21 1385.17,424.48 1404.03,437.41 1398.97,444.60 1397.30,443.42 1386.12,459.34 1388.07,460.51 1397.76,467.50 1399.29,465.37 1422.92,432.34"/>
    <poly id="125513288" type="building.yes" color="255,230,230" fill="1" layer="-1.00" shape="1337.30,498.50 1333.06,495.86 1322.45,488.88 1321.53,490.40 1318.74,488.51 1324.88,478.18 1319.79,474.94 1329.27,461.35 1317.42,452.80 1307.54,467.47 1312.52,471.00 1299.24,490.88 1339.93,517.26 1340.70,516.37 1341.66,517.02 1339.12,520.93 1344.36,524.29 1365.34,519.74 1368.70,514.64 1365.89,512.62 1382.30,487.57 1370.53,479.05 1361.06,493.67 1358.53,494.60 1357.81,490.74 1339.50,494.42 1340.15,498.26 1337.30,498.50"/>
    <poly id="125513293" type="building.yes" color="255,230,230" fill="1" layer="-1.00" shape="1333.86,426.38 1337.00,422.33 1341.63,416.02 1351.02,422.89 1346.50,429.05 1351.00,432.35 1347.92,436.53 1333.86,426.38"/>
    <poly id="125736711" type="building.yes" color="255,230,230" fill="1" layer="-1.00" shape="1295.33,1158.97 1326.00,1170.83 1361.70,1180.03 1384.48,1182.86 1405.92,1183.75 1420.04,1183.83 1442.22,1182.61 1462.47,1179.86 1484.27,1175.01 1477.48,1158.49 1459.21,1162.51 1441.53,1164.55 1428.39,1165.16 1407.67,1165.79 1386.23,1165.33 1366.09,1162.64 1333.73,1155.21 1301.98,1143.77 1295.33,1158.97"/>
    <poly id="126128623" type="building.yes" color="255,230,230" fill="1" layer="-1.00" shape="1010.91,1133.82 1014.88,1140.54 1023.87,1149.78 1045.69,1165.65 1037.52,1175.35 1036.41,1173.83 1032.49,1169.86 1026.99,1164.16 1009.30,1148.59 1001.03,1154.42 994.85,1145.09 1010.91,1133.82"/>
    <poly id="126128623#1" type="tourism.hotel" color="207,245,201" fill="1" layer="-2.00" shape="1010.91,1133.82 1014.88,1140.54 1023.87,1149.78 1045.69,1165.65 1037.52,1175.35 1036.41,1173.83 1032.49,1169.86 1026.99,1164.16 1009.30,1148.59 1001.03,1154.42 994.85,1145.09 1010.91,1133.82"/>
    <poly id="127177463" type="landuse.grass" color="194,194,130" fill="1" layer="-3.00" shape="640.26,750.81 635.71,802.44 671.05,808.02 672.06,802.09 684.69,782.50 685.40,781.58 684.62,780.98 687.69,776.98 688.40,777.52 689.35,776.30 693.30,779.34 694.06,778.35 710.84,791.25 718.10,781.94 728.16,785.03 717.78,777.26 640.26,750.81"/>
    <poly id="127177463#1" type="leisure.garden" color="207,245,201" fill="1" layer="-2.00" shape="640.26,750.81 635.71,802.44 671.05,808.02 672.06,802.09 684.69,782.50 685.40,781.58 684.62,780.98 687.69,776.98 688.40,777.52 689.35,776.30 693.30,779.34 694.06,778.35 710.84,791.25 718.10,781.94 728.16,785.03 717.78,777.26 640.26,750.81"/>
    <poly id="127178490" type="building.yes" color="255,230,230" fill="1" layer="-1.00" shape="674.39,854.87 651.23,835.24 646.51,831.55 641.85,827.93 637.95,824.89 634.26,829.68 660.50,850.14 657.04,854.58 643.89,844.33 642.85,845.66 629.79,835.48 627.88,837.96 627.18,838.87 664.11,869.03 674.39,854.87"/>
    <poly id="127178491" type="building.yes" color="255,230,230" fill="1" layer="-1.00" shape="666.73,815.60 651.23,835.24 674.39,854.87 695.30,827.21 684.53,818.98 681.85,818.51 666.73,815.60"/>
    <poly id="128441442" type="building.yes" color="255,230,230" fill="1" layer="-1.00" shape="328.49,656.83 330.85,628.29 313.81,626.74 296.28,625.45 293.91,653.99 328.49,656.83"/>