<?xml version="1.0" encoding="UTF-8"?>

<!-- generated on Mon Feb  6 15:06:56 2017 by SUMO duarouter Version svn
<?xml version="1.0" encoding="UTF-8"?>

<configuration xmlns:xsi="http://www.w3.org/2001/XMLSchema-instance" xsi:noNamespaceSchemaLocation="http://sumo.dlr.de/xsd/duarouterConfiguration.xsd">

    <input>
        <net-file value="osm.net.xml"/>
        <trip-files value="osm.passenger.trips.xml"/>
    </input>

    <output>
        <output-file value="osm.passenger.rou.xml"/>
    </output>

    <processing>
        <ignore-errors value="true"/>
    </processing>

    <time>
        <begin value="0"/>
        <end value="3600.0"/>
    </time>

    <report>
        <no-warnings value="true"/>
        <no-step-log value="true"/>
    </report>

</configuration>
-->

<routes xmlns:xsi="http://www.w3.org/2001/XMLSchema-instance" xsi:noNamespaceSchemaLocation="http://sumo.dlr.de/xsd/routes_file.xsd">
    <vType id="passenger" vClass="passenger"/>
    <vehicle id="veh0" type="passenger" depart="0.00" departLane="best">
        <route edges="25294729#0 -25294729#0 156364570#1 156364570#2 156364556 202157002#1 202157002#2 202157002#3 24915060#1 24915060#2 -136571494#6 -136571494#5 -136571494#3 -136571494#2 -136571494#1"/>
    </vehicle>
    <vehicle id="veh1" type="passenger" depart="6.83" departLane="best">
        <route edges="-4610472#2 4610472#2 -465376254 -4402228 190447768#0 190447768#1 195411602#1 465376240 195411604 11483007 -4412868"/>
    </vehicle>
    <vehicle id="veh2" type="passenger" depart="13.66" departLane="best">
        <route edges="342968607#0 461526152 340498982#0 340498982#1 340498982#3 340498982#4 340498982#7 354528932 251884680 15971196#1 54048862#0 54048862#2 54048862#3 23013165#1 23013165#2 4611698#1 202156994#0 24915060#1 24915060#2 61583423#0 61583423#1 82654059#0 4612963 60333311#1 60333311#2 289966097 289966281 289830408 4612965 310176513#0 310176513#1"/>
    </vehicle>
    <vehicle id="veh3" type="passenger" depart="20.49" departLane="best">
        <route edges="4613308#0 310357284#0 112128419#1 112128419#2 24990031 415280722 195401013#2 195401013#3 171826985#1 171826985#2 171826985#3 24913519#1 24913519#2 24913519#3 202156995#0 202156995#1 4067932#1 61584187#0 61584187#2 61584187#3 61584187#4 61584187#5 54048863 4611699 169195795#0 354528932 251884680 194962998#0 -194962998#0"/>
    </vehicle>
    <vehicle id="veh4" type="passenger" depart="27.32" departLane="best">
        <route edges="158023913#0 158023913#1 158023913#2 11483007 -169999355 -461526153 461526152 340498982#0 340498982#1 340498982#3 340498982#4 340498982#7 354528932 251884680 15971196#1 54048862#0 54048862#2 54048862#3 23013165#1 23013165#2 4611698#1 202156994#0 24915060#1 24915060#2 -136571494#6 -136571494#5"/>
    </vehicle>
    <vehicle id="veh5" type="passenger" depart="34.15" departLane="best">
        <route edges="-34848160#2 -34848160#1 -34848160#0 -465376254 -4402228 190447768#0 190447768#1 195411602#1 465376240 195411604 11483007 -169999355 -461526153 461526152 340498982#0 340498982#1 340498982#3 340498982#4 340498982#7 354528932 251884680 15971196#1 54048862#0 54048862#2 54048862#3 23013165#1 23013165#2 4611698#1 202156994#0 72157174#0 72157174#1 171826984#1 171826984#2 171826984#3 171826984#4 24913524#1 195401017#3"/>
    </vehicle>
    <vehicle id="veh6" type="passenger" depart="40.98" departLane="best">
        <route edges="-136571494#2 136571494#2 136571494#3 136571494#4 136571494#6 61583424#0 61583424#1 61583424#2 284493291#0 24913519#1 24913519#2 24913519#3 202156995#0 202156995#1 4067932#1 61584187#0 61584187#2 61584187#3 61584187#4 61584187#5 54048863 4611699 169195795#0 169195795#1 169195795#2 169195795#5 169195795#6 169195795#7 169195795#8 169195795#10 340498988 169999355 -11483007 22972195#0 22972195#1 22972195#2 465376239 465376255#2 190447767#1 190447766#1 190447766#2 195411603#1 4402228 465376254 222328410 153698390#0 153698390#1 380240681 -380240681"/>
    </vehicle>
    <vehicle id="veh7" type="passenger" depart="47.81" departLane="best">
        <route edges="289966097 4612969#0 4612969#1 4612969#2 82658671#1 -4612970#1 -4612970#0 -4612968#1 -4612968#0 4612964#1 24992428 156364553#1 156364553#2 72157172 61583424#0 61583424#1 61583424#2 284493291#0 24913519#1 24913519#2 24913519#3 202156995#0 202156995#1 4067932#1 -23121445#5 23121445#5"/>
    </vehicle>
    <vehicle id="veh8" type="passenger" depart="54.64" departLane="best">
        <route edges="4610362#5 4610362#6 4610362#7 4610362#8 30721662#0 30721662#1 30721662#2 30721662#3 23809670#0 23809670#1 23809670#2 23809670#3 23809670#4 28016312 156364556 202157002#1 202157002#2 202157002#3 24913519#1 24913519#2 24913519#3 202156995#0 202156995#1 4067932#1 61584187#0 61584187#2 61584187#3 61584187#4 61584187#5 54048863 4611699 169195795#0 169195795#1 169195795#2 169195795#5 169195795#6 169195795#7 169195795#8 169195795#10 340498988 169999355 -111833185#1 -111833185#0"/>
    </vehicle>
    <vehicle id="veh10" type="passenger" depart="68.29" departLane="best">
        <route edges="-82658674#2 82658674#2 82658674#3 -24992424#2 4612964#0 4612964#1 24992428 156364553#1 156364553#2 72157172 61583424#0 61583424#1 61583424#2 284493291#0 72157174#0 72157174#1 171826984#1 171826984#2 171826984#3 171826984#4 24913524#1 195401017#3 139877314#1 139877314#2 310357283#0 310357283#2 19002403#0 113766986#0 -24993933#0"/>
    </vehicle>
    <vehicle id="veh11" type="passenger" depart="75.12" departLane="best">
        <route edges="72157169#0 72157169#1 -4612981 24913524#1 195401017#3 139877314#1 139877314#2 310357283#0 310357283#2 112128418#1"/>
    </vehicle>
    <vehicle id="veh12" type="passenger" depart="81.95" departLane="best">
        <route edges="4610600 339201177 4610597#1 4610597#2 4610597#3 23121445#0 23121445#1 23121445#2 23121445#3 23121445#4 23121445#5 54048862#3 23013165#1 23013165#2 4611698#1 202156994#0 24913519#1"/>
    </vehicle>
    <vehicle id="veh14" type="passenger" depart="95.61" departLane="best">
        <route edges="23121444 -23121444 23121445#0 23121445#1 23121445#2 23121445#3 23121445#4 23121445#5 54048862#3 23013165#1 23013165#2 4611698#1 202156994#0 4773465#0 4773465#1 4773465#2 -156364570#2 -156364570#1 -156364570#0 77348147"/>
    </vehicle>
    <vehicle id="veh15" type="passenger" depart="102.44" departLane="best">
        <route edges="122820534#0 122820534#1 340498976#4 340498976#5 340498976#6 340498976#7 340498976#8 340498976#9 340498976#10 83517339 -4610480 4610600 339201177 4610597#1 4610597#2 4610597#3 23121445#0 23121445#1 23121445#2 23121445#3 23121445#4 23121445#5 54048862#3 23013165#1 23013165#2 4611698#1 202156994#0 72157174#0 72157174#1 171826984#1 171826984#2 171826984#3 171826984#4 24913524#1 195401017#3 139877314#1 139877314#2 310357283#0 310357283#2 19002403#0 386199333#0 19002357#0 19002363#0 19002363#1 -55741054 -62363401 -234463928#0 234463931#5"/>
    </vehicle>
    <vehicle id="veh16" type="passenger" depart="109.27" departLane="best">
        <route edges="4610476#1 4610476#2 4610476#3 24243092#0 24243092#1 35578576#0 35578576#1 153698394#0 153698394#1 153698394#2 340498982#0 340498982#1 340498982#3 340498982#4 340498982#7 354528932 251884680 15971196#1 54048862#0 54048862#2 54048862#3 23013165#1 23013165#2 4611698#1 202156994#0 24915060#1 24915060#2 61583423#0 61583423#1 82654059#0 4612963 156364566#1 60333309#0 24992424#0 24992424#3"/>
    </vehicle>
    <vehicle id="veh17" type="passenger" depart="116.10" departLane="best">
        <route edges="4611699 169195795#0 354528932 251884680 15971196#1 54048862#0 54048862#2 54048862#3 23013165#1 23013165#2 4611698#1 202156994#0 24915060#1 24915060#2 61583423#0 61583423#1 82654059#0 81112790#1 23851927#0 23851927#1 23851927#2"/>
    </vehicle>
    <vehicle id="veh18" type="passenger" depart="122.93" departLane="best">
        <route edges="327518240 -380240681 -153698390#1 -153698390#0 30720544#2 -465376254 -4402228 190447768#0 190447768#1 195411602#1 465376240 195411604 -158023913#2 -158023913#1 -158023913#0"/>
    </vehicle>
    <vehicle id="veh19" type="passenger" depart="129.76" departLane="best">
        <route edges="-19002363#2 -19002363#1 -19002363#0 4613292#0 24241797#0 24241797#3 24990040 415280722 195401013#2 195401013#3 171826985#1 171826985#2 171826985#3 4773465#0 4773465#1 4773465#2 -156364570#2 -156364570#1 -156364570#0 -387892378 -370359204#0 -316746323#1 -316746323#0 -84960595 183415643 46140378 46140382 30721660#1 30721660#2 30721660#3 30721660#4 437325047#0 437325047#2 437325047#3 51167934#0 51167934#1 51167934#2 4610375#0 -4610375#0"/>
    </vehicle>
    <vehicle id="veh20" type="passenger" depart="136.59" departLane="best">
        <route edges="-194962998#1 -194962998#0 15971196#1 54048862#0 54048862#2 54048862#3 23013165#1 23013165#2 4611698#1 202156994#0 4773465#0 4773465#1 4773465#2 -156364570#2 -156364570#1 -156364570#0 -387892378 -370359204#0 48664717#0 -48664717#0"/>
    </vehicle>
    <vehicle id="veh21" type="passenger" depart="143.42" departLane="best">
        <route edges="24993933#0 24993933#1 24241797#0 24241797#3 24990040 415280722 195401013#2 195401013#3 171826985#1 171826985#2 171826985#3 24915060#1 24915060#2 61583423#0 61583423#1 82654059#0 156364553#1 -128396189#2 -128396189#1 -128396189#0 128396190#4"/>
    </vehicle>
    <vehicle id="veh22" type="passenger" depart="150.25" departLane="best">
        <route edges="114667396#2 -15977422#1 -15977422#0 24243092#0 24243092#1 35578576#0 35578576#1 153698394#0 153698394#1 153698394#2 340498982#0 340498982#1 340498982#3 340498982#4 340498982#7 354528932 251884680 15971196#1 54048862#0 54048862#2 54048862#3 23013165#1 23013165#2 4611698#1 202156994#0 24915060#1 24915060#2 -136571494#6 -136571494#5 -136571494#3 -136571494#2 -136571494#1 -136571494#0 -202817674#1 -202817674#0 -43156728"/>
    </vehicle>
    <vehicle id="veh23" type="passenger" depart="157.08" departLane="best">
        <route edges="-454285423#1 -454285423#0 4610351 30721660#3 30721660#4 4610362#0 4610362#1 4610362#2 4610362#3 4610362#4 4610362#5 4610362#6 4610362#7 4610362#8 30721662#0 30721662#1 30721662#2 30721662#3 23809670#0 23809670#1 23809670#2 23809670#3 23809670#4 28016312 156364556 202157002#1 202157002#2 202157002#3 24913519#1 24913519#2 24913519#3 202156995#0 202156995#1 4067932#1 61584187#0 61584187#2 61584187#3 61584187#4 61584187#5 54048863"/>
    </vehicle>
    <vehicle id="veh26" type="passenger" depart="177.56" departLane="best">
        <route edges="-24243107#2 168940071#0 168940071#1 168940071#2 168940071#3 -42103020#1 42103020#1 30720544#0 30720544#1 153698390#0 153698390#1"/>
    </vehicle>
    <vehicle id="veh27" type="passenger" depart="184.39" departLane="best">
        <route edges="83517336#3 340498976#1 -15977422#1 -15977422#0 24243092#0 24243092#1 35578576#0 35578576#1 153698394#0 153698394#1 153698394#2 340498982#0 340498982#1 340498982#3 340498982#4 340498982#7 354528932 251884680 15971196#1 54048862#0 54048862#2 54048862#3 23013165#1 23013165#2 4611698#1 202156994#0 4773465#0 4773465#1 4773465#2 -28016312 28016312"/>
    </vehicle>
    <vehicle id="veh28" type="passenger" depart="191.22" departLane="best">
        <route edges="234463931#4 234463931#5 234463928#1 55741054 -19002363#1 -19002363#0 4613292#0 24241797#0 24241797#3 24990040 415280722 195401013#2 195401013#3 171826985#1 171826985#2 171826985#3 72157174#0 72157174#1 171826984#1 171826984#2 171826984#3 171826984#4 24913524#1 195401017#3 139877314#1 139877314#2 310357283#0"/>
    </vehicle>
    <vehicle id="veh29" type="passenger" depart="198.05" departLane="best">
        <route edges="4610597#1 -4610597#1 -4610597#0 -15971189 4610480 35578557 83517334#1 22972219#0 22972219#2 4610476#0 4610476#1 4610476#2 4610476#3 24243092#0 24243092#1 22972454 195397561#1 4610472#2 222328410 153698390#0 153698390#1 427637455"/>
    </vehicle>
    <vehicle id="veh30" type="passenger" depart="204.88" departLane="best">
        <route edges="-380240681 -153698390#1 -153698390#0 30720544#2 -4610472#2 -4610472#1 -4610472#0 -137630045"/>
    </vehicle>
    <vehicle id="veh31" type="passenger" depart="211.71" departLane="best">
        <route edges="-51167934#4 -51167934#3 -51167934#2 -51167934#1 -51167934#0 -437325047#3 -437325047#2 -437325047#0 4610362#0 4610362#1 4610362#2 4610362#3 4610362#4 4610362#5 4610362#6 4610362#7 4610362#8 30721662#0 30721662#1 30721662#2 30721662#3 23809670#0 23809670#1 23809670#2 23809670#3 23809670#4 28016312 156364556 202157002#1 202157002#2 202157002#3 24915060#1 24915060#2 61583423#0 61583423#1 82654059#0 4612963 60333311#1 60333311#2 -4612968#2"/>
    </vehicle>
    <vehicle id="veh32" type="passenger" depart="218.54" departLane="best">
        <route edges="-31313667#2 31313667#2 31313667#3 195411605#1 24243092#0 24243092#1 35578576#0 35578576#1 153698394#0 153698394#1 153698394#2 340498982#0 340498982#1 340498982#3 340498982#4 340498982#7 354528932 251884680 15971196#1 54048862#0 54048862#2 54048862#3 23013165#1 23013165#2 4611698#1 202156994#0 24915060#1 24915060#2 -136571494#6 -136571494#5 -136571494#3 -136571494#2 -136571494#1 -136571494#0 -202817674#1 -202817674#0 120675240#0 120675240#1 -4611696#4 54781811#0 54781811#1"/>
    </vehicle>
    <vehicle id="veh33" type="passenger" depart="225.37" departLane="best">
        <route edges="4612969#2 82658671#1 -4612970#1 -4612970#0 -4612968#1 -4612968#0 4612964#1 24992428 156364553#1 156364553#2 72157172 61583424#0 61583424#1 61583424#2 284493291#0 4773465#0 4773465#1 4773465#2 -156364570#2 -156364570#1 -156364570#0 -387892378 -370359204#0 -316746323#1 -316746323#0 46140376#0 46140376#1 -84960597"/>
    </vehicle>
    <vehicle id="veh34" type="passenger" depart="232.20" departLane="best">
        <route edges="30720544#1 30720544#2 -465376254 -4402228 190447768#0 190447768#1 195411602#1 465376240 195411604 11483007 -169999355 -461526153 461526152 340498982#0 340498982#1 340498982#3 340498982#4 340498982#7 354528932 251884680 15971196#1"/>
    </vehicle>
    <vehicle id="veh35" type="passenger" depart="239.03" departLane="best">
        <route edges="4773465#1 4773465#2 156364556 202157002#1 202157002#2 202157002#3 72157174#0 72157174#1 171826984#1 171826984#2 171826984#3 171826984#4 24913524#1 195401017#3 139877314#1 139877314#2 310357283#0 310357283#2 19002403#0 386199333#0 19002357#0 19002363#0 19002363#1 19002363#2"/>
    </vehicle>
    <vehicle id="veh36" type="passenger" depart="245.86" departLane="best">
        <route edges="-454285423#1 -454285423#0 4610351 30721660#3 30721660#4 4610362#0 4610362#1 4610362#2 4610362#3 4610362#4 4610362#5 4610362#6 4610362#7 4610362#8 30721662#0 30721662#1 30721662#2 30721662#3 23809670#0 23809670#1 23809670#2 23809670#3 23809670#4 28016312 156364556 202157002#1 202157002#2 202157002#3 24913519#1 24913519#2 24913519#3 202156995#0 202156995#1 4067932#1 -23121445#5 -23121445#4 -23121445#3 -23121445#2 -23121445#1 -23121445#0 -4610597#3 -4610597#2 -4610597#1 -4610597#0"/>
    </vehicle>
    <vehicle id="veh37" type="passenger" depart="252.69" departLane="best">
        <route edges="23809670#1 23809670#2 23809670#3 23809670#4 28016312 156364556 202157002#1 202157002#2 202157002#3 24915060#1 24915060#2 -136571494#6 -136571494#5 -136571494#3 -136571494#2 -136571494#1 -136571494#0 -202817674#1 -202817674#0 120675240#0 120675240#1 -4611696#4"/>
    </vehicle>
    <vehicle id="veh38" type="passenger" depart="259.52" departLane="best">
        <route edges="24241797#3 24990040 415280722 195401013#2 195401013#3 171826985#1 171826985#2 171826985#3 24913519#1 24913519#2 24913519#3 202156995#0 202156995#1 4067932#1 61584187#0 61584187#2 61584187#3 61584187#4 61584187#5 54048863 4611699 169195795#0 169195795#1 169195795#2 169195795#5 169195795#6 169195795#7 169195795#8 169195795#10 340498988 -461526153 461526153"/>
    </vehicle>
    <vehicle id="veh39" type="passenger" depart="266.35" departLane="best">
        <route edges="136571494#4 136571494#6 61583424#0 61583424#1 61583424#2 284493291#0 4773465#0 4773465#1 4773465#2 -156364570#2 -156364570#1 -156364570#0 -387892378 -370359204#0 -316746323#1 -316746323#0 -84960595 183415643 46140378 46140382 30721660#1 30721660#2 30721660#3 30721660#4 437325047#0 437325047#2 -437325047#2"/>
    </vehicle>
    <vehicle id="veh40" type="passenger" depart="273.18" departLane="best">
        <route edges="84960597 83517332#0 83517332#1 83517332#2 183415643 46140378 46140382 30721660#1 30721660#2 30721660#3 30721660#4 437325047#0 437325047#2 437325047#3 51167934#0 51167934#1 51167934#2 4610375#0 4610375#1 168940071#0 168940071#1 168940071#2 168940071#3 -42103020#1 42103020#1 30720544#0 30720544#1 30720544#2 -465376254 -4402228 190447768#0 190447768#1 195411602#1 465376240 195411604"/>
    </vehicle>
    <vehicle id="veh41" type="passenger" depart="280.01" departLane="best">
        <route edges="-194963395 136571494#6 61583424#0 61583424#1 61583424#2 284493291#0 4773465#0 4773465#1 4773465#2 -156364570#2 -156364570#1 25294729#0"/>
    </vehicle>
    <vehicle id="veh42" type="passenger" depart="286.83" departLane="best">
        <route edges="4402228 -4402228 190447768#0 190447768#1 195411602#1 465376240 195411604 11483007 -169999355 -461526153 461526152 340498982#0 340498982#1 340498982#3 340498982#4 340498982#7 169195795#1 169195795#2"/>
    </vehicle>
    <vehicle id="veh43" type="passenger" depart="293.66" departLane="best">
        <route edges="-168943640#2 -24992424#2 4612964#0 4612964#1 24992428 156364553#1 156364553#2 72157172 61583424#0 61583424#1 61583424#2 284493291#0 24913519#1 24913519#2 24913519#3 202156995#0 202156995#1 4067932#1 61584187#0 61584187#2 61584187#3 61584187#4 61584187#5 54048863 4611699 169195795#0 169195795#1 169195795#2 169195795#5 169195795#6 169195795#7 169195795#8 114667396#0 114667396#1 114667396#2 -15977422#1 -15977422#0 24243092#0 24243092#1 35578576#0 35578576#1 153698394#0 153698394#1"/>
    </vehicle>
    <vehicle id="veh44" type="passenger" depart="300.49" departLane="best">
        <route edges="84960597 83517332#0 83517332#1 83517332#2 84960595 316746323#0 316746323#1 370359204#0 370359204#1 77348147 156364570#1 156364570#2 156364556 202157002#1 202157002#2 202157002#3 24913519#1 24913519#2 24913519#3 202156995#0 202156995#1 4067932#1 -23121445#5 -23121445#4 -23121445#3 -23121445#2 -23121445#1 -23121445#0 -4610597#3 -4610597#2 -4610597#1 -4610597#0 -15971189 4610480 35578557 83517334#1 22972219#0"/>
    </vehicle>
    <vehicle id="veh45" type="passenger" depart="307.32" departLane="best">
        <route edges="82654055#0 82654055#1 24992428 156364553#1 156364553#2 72157172 61583424#0 61583424#1 61583424#2 284493291#0 24913519#1 24913519#2 24913519#3 202156995#0 202156995#1 4067932#1 61584187#0 61584187#2 61584187#3 61584187#4 61584187#5 54048863 4611699 169195795#0 169195795#1 169195795#2 169195795#5 169195795#6 169195795#7 169195795#8 169195795#10 -66071373 -243854725#1 24242882#1 4611706"/>
    </vehicle>
    <vehicle id="veh46" type="passenger" depart="314.15" departLane="best">
        <route edges="-128396189#0 128396189#0 128396189#1 128396189#2 156364553#2 72157172 61583424#0 61583424#1 61583424#2 284493291#0 24913519#1 24913519#2 24913519#3 202156995#0 202156995#1 4067932#1 61584187#0 61584187#2 61584187#3 61584187#4 61584187#5 54048863 4611699 169195795#0 169195795#1 169195795#2 169195795#5 169195795#6 169195795#7 169195795#8 169195795#10 340498988"/>
    </vehicle>
    <vehicle id="veh47" type="passenger" depart="320.98" departLane="best">
        <route edges="31313667#1 31313667#2 31313667#3 195411605#1 15977422#0 15977422#1 340498976#2 340498976#3 340498976#4 340498976#5 340498976#6 340498976#7 340498976#8 340498976#9 340498976#10 83517339 -4610480 4610600 339201177 4610597#1 4610597#2 4610597#3 23121445#0"/>
    </vehicle>
    <vehicle id="veh48" type="passenger" depart="327.81" departLane="best">
        <route edges="-454285423#1 -454285423#0 4610351 30721660#3 30721660#4 4610362#0 4610362#1 4610362#2 4610362#3 4610362#4 4610362#5 4610362#6 4610362#7 4610362#8 30721662#0 30721662#1 30721662#2 30721662#3 23809670#0 23809670#1 23809670#2 23809670#3 23809670#4 28016312 156364556 202157002#1 202157002#2 202157002#3 24915060#1 24915060#2 61583424#0 61583424#1 61583424#2 284493291#0"/>
    </vehicle>
    <vehicle id="veh49" type="passenger" depart="334.64" departLane="best">
        <route edges="169195795#7 340498982#3 340498982#4 340498982#7 354528932 251884680 15971196#1 54048862#0 54048862#2 54048862#3 23013165#1 23013165#2 4611698#1 202156994#0 24915060#1 24915060#2 61583423#0 61583423#1"/>
    </vehicle>
    <vehicle id="veh50" type="passenger" depart="341.47" departLane="best">
        <route edges="4773029 -4611690#1 -4611690#0 -176381196 -24242882#1 243854725#1 66071373 340498982#0 340498982#1 340498982#3 340498982#4 340498982#7 354528932 251884680 15971196#1 54048862#0 54048862#2 54048862#3 23013165#1 23013165#2 4611698#1 202156994#0 24915060#1 24915060#2 61583423#0 61583423#1 82654059#0 4612963 156364566#1 60333309#0 4612964#0 4612968#0 4612968#1"/>
    </vehicle>
    <vehicle id="veh52" type="passenger" depart="355.13" departLane="best">
        <route edges="246052428 301167584#0 112128419#1 112128419#2 24990031 -24990040"/>
    </vehicle>
    <vehicle id="veh53" type="passenger" depart="361.96" departLane="best">
        <route edges="386199333#0 24241797#0 24241797#3 24990040 415280722 195401013#2 195401013#3 171826985#1 171826985#2 171826985#3 24913519#1 24913519#2 24913519#3 202156995#0 202156995#1 4067932#1 -23121445#5 -23121445#4 -23121445#3 -23121445#2 -23121445#1 23121445#1"/>
    </vehicle>
    <vehicle id="veh54" type="passenger" depart="368.79" departLane="best">
        <route edges="43156728 202817674#0 202817674#1 202817674#2 136571494#1 136571494#2 136571494#3 136571494#4 136571494#6 61583424#0 61583424#1 61583424#2 284493291#0 24913519#1 24913519#2 24913519#3 202156995#0 202156995#1 4067932#1 -23121445#5 -23121445#4 -23121445#3 -23121445#2 -23121445#1 -23121445#0 -4610597#3 -4610597#2 -4610597#1 -4610597#0 -15971189 4610480 35578557 83517334#1 22972219#0 22972219#2"/>
    </vehicle>
    <vehicle id="veh55" type="passenger" depart="375.62" departLane="best">
        <route edges="-111251382#0 42103020#0 42103020#1 30720544#0 30720544#1 30720544#2 -465376254 -4402228 190447768#0 190447768#1 195411602#1 465376240 195411604 11483007 -169999355 -461526153 461526152 340498982#0 340498982#1 340498982#3 340498982#4 340498982#7 354528932 251884680 15971196#1 54048862#0 54048862#2 54048862#3 23013165#1 23013165#2 4611698#1 202156994#0 72157174#0 72157174#1 171826984#1 171826984#2 171826984#3 171826984#4 24913524#1 195401017#3 139877314#1 139877314#2 310357283#0 310357283#2 100405009#0 100405009#2 100405009#3"/>
    </vehicle>
    <vehicle id="veh56" type="passenger" depart="382.45" departLane="best">
        <route edges="-128396190#4 128396189#0 128396189#1 128396189#2 156364553#2 72157172 61583424#0 61583424#1 61583424#2 284493291#0 4773465#0 4773465#1 4773465#2 -156364570#2 -156364570#1 -156364570#0 -387892378 -370359204#0 -316746323#1 -316746323#0 -84960595 183415643 46140378 46140382 30721660#1 30721660#2 30721660#3 30721660#4 437325047#0 437325047#2 437325047#3 51167934#0 51167934#1 51167934#2 51167934#3 51167934#4 51167934#5"/>
    </vehicle>
    <vehicle id="veh57" type="passenger" depart="389.28" departLane="best">
        <route edges="4612970#0 -4612970#0 -4612968#1 -4612968#0 4612964#1 24992428 156364553#1 156364553#2 72157172 61583424#0 61583424#1 61583424#2 284493291#0 24913519#1 24913519#2 24913519#3 202156995#0 202156995#1 4067932#1 61584187#0 61584187#2 61584187#3 61584187#4 61584187#5 54048863 4611699 169195795#0 169195795#1 169195795#2 169195795#5 169195795#6 169195795#7 169195795#8 114667396#0 114667396#1 114667396#2 340498976#2 340498976#3 -122820534#1 -122820534#0 4610479"/>
    </vehicle>
    <vehicle id="veh58" type="passenger" depart="396.11" departLane="best">
        <route edges="-465376254 465376254 222328410 -30720544#1 -30720544#0 -168940071#3 -168940071#2 -168940071#1 -168940071#0"/>
    </vehicle>
    <vehicle id="veh59" type="passenger" depart="402.93" departLane="best">
        <route edges="-194069450#0 194069450#0 194069450#1 461526152 340498982#0 340498982#1 340498982#3 340498982#4 340498982#7 354528932 251884680 194962998#0 194962998#1"/>
    </vehicle>
    <vehicle id="veh60" type="passenger" depart="409.76" departLane="best">
        <route edges="-183415643 183415643 46140378 46140382 30721660#1 30721660#2 30721660#3 30721660#4 437325047#0 437325047#2 437325047#3 51167934#0 51167934#1 51167934#2 4610375#0 4610375#1 168940071#0 168940071#1 168940071#2 168940071#3 -42103020#1 -42103020#0 42103021#0"/>
    </vehicle>
    <vehicle id="veh61" type="passenger" depart="416.59" departLane="best">
        <route edges="4067932#1 54048862#3 23013165#1 23013165#2 4611698#1 202156994#0 4773465#0 4773465#1 4773465#2 -28016312 -23809670#4 -23809670#3 -23809670#2 -23809670#1"/>
    </vehicle>
    <vehicle id="veh62" type="passenger" depart="423.42" departLane="best">
        <route edges="-454285423#1 -454285423#0 4610351 30721660#3 30721660#4 4610362#0 4610362#1 4610362#2 4610362#3 4610362#4 4610362#5 4610362#6 4610362#7 4610362#8 30721662#0 30721662#1 30721662#2 30721662#3 23809670#0 23809670#1 23809670#2 23809670#3 23809670#4 28016312 156364556 202157002#1 202157002#2 202157002#3 24915060#1 24915060#2 61583423#0 61583423#1 82654059#0 4612963 60333311#1 60333311#2 289966097 4612969#0"/>
    </vehicle>
    <vehicle id="veh63" type="passenger" depart="430.25" departLane="best">
        <route edges="158023913#0 158023913#1 158023913#2 11483007 -169999355 -461526153 461526152 340498982#0 340498982#1 340498982#3 340498982#4 340498982#7 354528932 251884680 15971196#1 54048862#0 54048862#2 54048862#3 23013165#1 23013165#2 4611698#1 202156994#0 24915060#1 24915060#2 61583423#0 61583423#1 82654059#0 4612963 156364566#1 60333309#0 -43159545"/>
    </vehicle>
    <vehicle id="veh66" type="passenger" depart="450.74" departLane="best">
        <route edges="84960597 83517332#0 83517332#1 83517332#2 84960595 316746323#0 316746323#1 370359204#0 370359204#1 77348147 156364570#1 156364570#2 156364556 202157002#1 202157002#2 202157002#3 24915060#1 24915060#2 61583423#0 61583423#1 82654059#0 4612963 60333311#1 60333311#2 289966097 289966281 289830408"/>
    </vehicle>
    <vehicle id="veh67" type="passenger" depart="457.57" departLane="best">
        <route edges="168937986#3 4610600 339201177 4610597#1 4610597#2 4610597#3 23121445#0 23121445#1 23121445#2 23121445#3 23121445#4 23121445#5 54048862#3 23013165#1 23013165#2 4611698#1 202156994#0 4773465#0 4773465#1 4773465#2 156364556 202157002#1 202157002#2"/>
    </vehicle>
    <vehicle id="veh69" type="passenger" depart="471.23" departLane="best">
        <route edges="-82658674#0 82658671#1 -4612970#1 -4612970#0 -4612968#1 -4612968#0 4612964#1 24992428 156364553#1 156364553#2 72157172 61583424#0 61583424#1 61583424#2 284493291#0 24913519#1 24913519#2 24913519#3 202156995#0 202156995#1 4067932#1 61584187#0 61584187#2 61584187#3 61584187#4 61584187#5 54048863 4611699 169195795#0 169195795#1 169195795#2 169195795#5 169195795#6 169195795#7 169195795#8 169195795#10 -66071373 -243854725#1 24242882#1"/>
    </vehicle>
    <vehicle id="veh70" type="passenger" depart="478.06" departLane="best">
        <route edges="-387892378 -370359204#0 -316746323#1 -316746323#0 -84960595 183415643 46140378 46140382 30721660#1 30721660#2 30721660#3 30721660#4 437325047#0 437325047#2 437325047#3 -437325047#3"/>
    </vehicle>
    <vehicle id="veh71" type="passenger" depart="484.89" departLane="best">
        <route edges="-183415643 84960595 316746323#0 316746323#1 370359204#0 370359204#1 77348147 25294729#0 25294729#1"/>
    </vehicle>
    <vehicle id="veh72" type="passenger" depart="491.72" departLane="best">
        <route edges="4611696#5 -120675240#0 -43156728 43156728 202817674#0 202817674#1 202817674#2 136571494#1 136571494#2 136571494#3 136571494#4 136571494#6 61583424#0 61583424#1 61583424#2 284493291#0 72157174#0 72157174#1 171826984#1 171826984#2 171826984#3 171826984#4 24913524#1 195401017#3 139877314#1 139877314#2 310357283#0 310357283#2 19002403#0 386199333#0 19002357#0 19002363#0 19002363#1 -19002363#1"/>
    </vehicle>
    <vehicle id="veh73" type="passenger" depart="498.55" departLane="best">
        <route edges="-427637455 -153698390#1 -153698390#0 -30720544#1 -30720544#0 -168940071#3 -168940071#2 -168940071#1 -168940071#0 -4610375#1 -4610375#0 -51167934#2 -51167934#1 -51167934#0 -437325047#3 -437325047#2 -437325047#0 4610362#0 4610362#1 4610362#2 4610362#3 4610362#4 4610362#5 4610362#6 4610362#7 4610362#8 30721662#0 30721662#1 30721662#2 30721662#3"/>
    </vehicle>
    <vehicle id="veh74" type="passenger" depart="505.38" departLane="best">
        <route edges="-339201185 24243107#0 24243107#1 -4610375#1 -4610375#0 -51167934#2 -51167934#1 -51167934#0 -437325047#3 -437325047#2 -437325047#0 4610362#0 4610362#1 4610362#2 4610362#3 4610362#4 4610362#5 4610362#6 4610362#7 4610362#8 30721662#0 30721662#1 30721662#2 30721662#3 23809670#0 23809670#1 23809670#2 23809670#3 23809670#4 -23809670#4"/>
    </vehicle>
    <vehicle id="veh75" type="passenger" depart="512.20" departLane="best">
        <route edges="19002357#0 4613292#0 24241797#0 24241797#3 24990040 415280722 195401013#2 195401013#3 171826985#1 171826985#2 171826985#3 4773465#0 4773465#1 4773465#2 -156364570#2 -156364570#1 -156364570#0 -387892378 -370359204#0 -316746323#1 -316746323#0 -84960595 183415643 46140378 46140382 30721660#1 30721660#2 30721660#3 30721660#4 437325047#0 437325047#2 437325047#3 437325047#4"/>
    </vehicle>
    <vehicle id="veh76" type="passenger" depart="519.03" departLane="best">