<?xml version="1.0" encoding="UTF-8"?>

<!-- generated on Mon Feb  6 15:06:54 2017 by SUMO netconvert Version svn
<?xml version="1.0" encoding="UTF-8"?>

<configuration xmlns:xsi="http://www.w3.org/2001/XMLSchema-instance" xsi:noNamespaceSchemaLocation="http://sumo.dlr.de/xsd/netconvertConfiguration.xsd">

    <input>
        <type-files value="/home/ladmin/SUMO/sumo-code-22016-trunk/tools/../data/typemap/osmNetconvert.typ.xml"/>
        <osm-files value="osm_bbox.osm.xml"/>
    </input>

    <output>
        <output-file value="/home/ladmin/SUMO/sumo-code-22016-trunk/tools/2017-02-06-15-06-48/osm.net.xml"/>
        <output.street-names value="true"/>
        <output.original-names value="true"/>
    </output>

    <projection>
        <proj.utm value="true"/>
    </projection>

    <tls_building>
        <tls.discard-simple value="true"/>
        <tls.join value="true"/>
        <tls.guess-signals value="true"/>
    </tls_building>

    <ramp_guessing>
        <ramps.guess value="true"/>
    </ramp_guessing>

    <processing>
        <geometry.remove value="true"/>
        <roundabouts.guess value="true"/>
        <junctions.join value="true"/>
        <junctions.corner-detail value="5"/>
    </processing>

    <report>
        <verbose value="true"/>
    </report>

</configuration>
-->

<net version="0.27" junctionCornerDetail="5" xmlns:xsi="http://www.w3.org/2001/XMLSchema-instance" xsi:noNamespaceSchemaLocation="http://sumo.dlr.de/xsd/net_file.xsd">

    <location netOffset="-390441.18,-5819268.61" convBoundary="0.00,0.00,2177.77,2100.58" origBoundary="13.372213,52.511366,13.417611,52.531762" projParameter="+proj=utm +zone=33 +ellps=WGS84 +datum=WGS84 +units=m +no_defs"/>

    <type id="highway.bridleway" priority="1" numLanes="1" speed="2.78" allow="pedestrian" oneway="1" width="2.00"/>
    <type id="highway.bus_guideway" priority="1" numLanes="1" speed="8.33" allow="bus" oneway="1"/>
    <type id="highway.cycleway" priority="1" numLanes="1" speed="5.56" allow="bicycle" oneway="0" width="1.00"/>
    <type id="highway.footway" priority="1" numLanes="1" speed="2.78" allow="pedestrian" oneway="1" width="2.00"/>
    <type id="highway.ford" priority="1" numLanes="1" speed="2.78" allow="army" oneway="0"/>
    <type id="highway.living_street" priority="3" numLanes="1" speed="2.78" disallow="tram rail_urban rail rail_electric ship" oneway="0"/>
    <type id="highway.motorway" priority="13" numLanes="2" speed="44.44" allow="private emergency authority army vip passenger hov taxi bus coach delivery truck trailer motorcycle evehicle custom1 custom2" oneway="1"/>
    <type id="highway.motorway_link" priority="12" numLanes="1" speed="22.22" allow="private emergency authority army vip passenger hov taxi bus coach delivery truck trailer motorcycle evehicle custom1 custom2" oneway="1"/>
    <type id="highway.path" priority="1" numLanes="1" speed="2.78" allow="bicycle pedestrian" oneway="1" width="2.00"/>
    <type id="highway.pedestrian" priority="1" numLanes="1" speed="2.78" allow="pedestrian" oneway="1" width="2.00"/>
    <type id="highway.primary" priority="9" numLanes="2" speed="27.78" disallow="tram rail_urban rail rail_electric ship" oneway="0"/>
    <type id="highway.primary_link" priority="8" numLanes="1" speed="22.22" disallow="tram rail_urban rail rail_electric ship" oneway="0"/>
    <type id="highway.raceway" priority="14" numLanes="2" speed="83.33" allow="vip" oneway="0"/>
    <type id="highway.residential" priority="4" numLanes="1" speed="13.89" disallow="tram rail_urban rail rail_electric ship" oneway="0"/>
    <type id="highway.secondary" priority="7" numLanes="2" speed="27.78" disallow="tram rail_urban rail rail_electric ship" oneway="0"/>
    <type id="highway.secondary_link" priority="6" numLanes="1" speed="22.22" disallow="tram rail_urban rail rail_electric ship" oneway="0"/>
    <type id="highway.service" priority="2" numLanes="1" speed="5.56" allow="delivery bicycle pedestrian" oneway="0"/>
    <type id="highway.services" priority="1" numLanes="1" speed="8.33" disallow="tram rail_urban rail rail_electric ship" oneway="0"/>
    <type id="highway.service|railway.tram" priority="15" numLanes="1" speed="13.89" allow="delivery tram bicycle pedestrian" oneway="0"/>
    <type id="highway.stairs" priority="1" numLanes="1" speed="1.39" allow="pedestrian" oneway="1" width="2.00"/>
    <type id="highway.step" priority="1" numLanes="1" speed="1.39" allow="pedestrian" oneway="1" width="2.00"/>
    <type id="highway.steps" priority="1" numLanes="1" speed="1.39" allow="pedestrian" oneway="1" width="2.00"/>
    <type id="highway.tertiary" priority="6" numLanes="1" speed="22.22" disallow="tram rail_urban rail rail_electric ship" oneway="0"/>
    <type id="highway.tertiary_link" priority="5" numLanes="1" speed="22.22" disallow="tram rail_urban rail rail_electric ship" oneway="0"/>
    <type id="highway.track" priority="1" numLanes="1" speed="5.56" disallow="tram rail_urban rail rail_electric ship" oneway="0"/>
    <type id="highway.trunk" priority="11" numLanes="2" speed="27.78" disallow="tram rail_urban rail rail_electric bicycle pedestrian ship" oneway="0"/>
    <type id="highway.trunk_link" priority="10" numLanes="1" speed="22.22" disallow="tram rail_urban rail rail_electric bicycle pedestrian ship" oneway="0"/>
    <type id="highway.unclassified" priority="5" numLanes="1" speed="13.89" disallow="tram rail_urban rail rail_electric ship" oneway="0"/>
    <type id="highway.unsurfaced" priority="1" numLanes="1" speed="8.33" disallow="tram rail_urban rail rail_electric ship" oneway="0"/>
    <type id="railway.light_rail" priority="15" numLanes="1" speed="27.78" allow="rail_urban" oneway="1"/>
    <type id="railway.preserved" priority="15" numLanes="1" speed="27.78" allow="rail" oneway="1"/>
    <type id="railway.rail" priority="15" numLanes="1" speed="83.33" allow="rail rail_electric" oneway="1"/>
    <type id="railway.subway" priority="15" numLanes="1" speed="27.78" allow="rail_urban" oneway="1"/>
    <type id="railway.tram" priority="15" numLanes="1" speed="13.89" allow="tram" oneway="1"/>

    <edge id=":1075544310_0" function="internal">
        <lane id=":1075544310_0_0" index="0" disallow="tram rail_urban rail rail_electric ship" speed="8.33" length="4.82" shape="613.93,1117.27 614.31,1115.84 614.96,1115.18 615.87,1115.31 617.05,1116.22"/>
    </edge>
    <edge id=":1104281016_0" function="internal">
        <lane id=":1104281016_0_0" index="0" allow="delivery bicycle pedestrian" speed="8.33" length="4.82" shape="2013.72,1103.95 2012.24,1104.07 2011.41,1103.68 2011.22,1102.77 2011.68,1101.36"/>
    </edge>
    <edge id=":1157325170_0" function="internal">
        <lane id=":1157325170_0_0" index="0" allow="tram" speed="13.89" length="5.44" shape="1254.93,894.89 1258.20,890.53"/>
    </edge>
    <edge id=":1157325174_0" function="internal">
        <lane id=":1157325174_0_0" index="0" disallow="tram rail_urban rail rail_electric ship" speed="13.89" length="4.99" shape="1269.07,897.70 1266.04,901.63"/>
        <lane id=":1157325174_0_1" index="1" disallow="tram rail_urban rail rail_electric ship" speed="13.89" length="4.99" shape="1266.48,895.66 1263.42,899.62"/>
    </edge>
    <edge id=":1182601207_0" function="internal">
        <lane id=":1182601207_0_0" index="0" disallow="tram rail_urban rail rail_electric ship" speed="8.33" length="9.21" shape="1832.12,449.85 1831.56,440.65"/>
    </edge>
    <edge id=":1182601207_1" function="internal">
        <lane id=":1182601207_1_0" index="0" allow="delivery bicycle pedestrian" speed="6.95" length="5.10" shape="1832.12,449.85 1832.44,446.97 1833.53,445.06"/>
    </edge>
    <edge id=":1182601207_2" function="internal">
        <lane id=":1182601207_2_0" index="0" disallow="tram rail_urban rail rail_electric ship" speed="8.33" length="2.41" shape="1832.12,449.85 1832.91,448.59 1833.72,448.15"/>
    </edge>
    <edge id=":1182601207_9" function="internal">
        <lane id=":1182601207_9_0" index="0" speed="6.95" length="5.43" shape="1833.53,445.06 1833.61,444.91 1835.64,443.69 1838.51,443.30"/>
    </edge>
    <edge id=":1182601207_10" function="internal">
        <lane id=":1182601207_10_0" index="0" speed="8.33" length="2.41" shape="1833.72,448.15 1834.56,448.53 1835.42,449.74"/>
    </edge>
    <edge id=":1182601207_3" function="internal">
        <lane id=":1182601207_3_0" index="0" disallow="tram rail_urban rail rail_electric ship" speed="6.95" length="5.05" shape="1838.48,446.60 1837.11,446.79 1836.14,447.38 1835.57,448.36 1835.42,449.74"/>
    </edge>
    <edge id=":1182601207_4" function="internal">
        <lane id=":1182601207_4_0" index="0" disallow="tram rail_urban rail rail_electric ship" speed="6.95" length="10.19" shape="1838.48,446.60 1835.66,446.21 1833.57,445.09 1832.20,443.24 1831.56,440.65"/>
    </edge>
    <edge id=":1182601207_5" function="internal">
        <lane id=":1182601207_5_0" index="0" allow="delivery bicycle pedestrian" speed="5.56" length="4.82" shape="1838.48,446.60 1837.25,445.77 1836.85,444.94 1837.27,444.12 1838.51,443.30"/>
    </edge>
    <edge id=":1182601207_6" function="internal">
        <lane id=":1182601207_6_0" index="0" allow="delivery bicycle pedestrian" speed="6.95" length="5.26" shape="1834.84,440.34 1835.18,441.63 1835.90,442.55 1837.01,443.11 1838.51,443.30"/>
    </edge>
    <edge id=":1182601207_7" function="internal">
        <lane id=":1182601207_7_0" index="0" disallow="tram rail_urban rail rail_electric ship" speed="8.33" length="9.42" shape="1834.84,440.34 1835.42,449.74"/>
    </edge>
    <edge id=":1182601207_8" function="internal">
        <lane id=":1182601207_8_0" index="0" disallow="tram rail_urban rail rail_electric ship" speed="8.33" length="2.52" shape="1834.84,440.34 1834.14,441.65 1833.35,442.14 1833.25,442.10"/>
    </edge>
    <edge id=":1182601207_11" function="internal">
        <lane id=":1182601207_11_0" index="0" speed="8.33" length="2.30" shape="1833.25,442.10 1832.49,441.81 1831.56,440.65"/>
    </edge>
    <edge id=":1206624322_0" function="internal">
        <lane id=":1206624322_0_0" index="0" disallow="tram rail_urban rail rail_electric ship" speed="8.33" length="6.16" shape="140.49,680.41 134.34,679.90"/>
    </edge>
    <edge id=":1206624322_1" function="internal">
        <lane id=":1206624322_1_0" index="0" disallow="tram rail_urban rail rail_electric ship" speed="8.33" length="2.41" shape="140.49,680.41 139.32,679.48 138.99,678.63"/>
    </edge>
    <edge id=":1206624322_6" function="internal">
        <lane id=":1206624322_6_0" index="0" speed="8.33" length="2.41" shape="138.99,678.63 139.47,677.84 140.77,677.13"/>
    </edge>
    <edge id=":1206624322_2" function="internal">
        <lane id=":1206624322_2_0" index="0" disallow="tram rail_urban rail rail_electric ship" speed="6.95" length="5.00" shape="137.94,673.76 138.03,675.13 138.53,676.15 139.44,676.81 140.77,677.13"/>
    </edge>
    <edge id=":1206624322_3" function="internal">
        <lane id=":1206624322_3_0" index="0" disallow="tram rail_urban rail rail_electric ship" speed="6.95" length="7.85" shape="137.94,673.76 137.53,676.54 136.79,678.49 135.73,679.61 134.34,679.90"/>
    </edge>
    <edge id=":1206624322_4" function="internal">
        <lane id=":1206624322_4_0" index="0" disallow="tram rail_urban rail rail_electric ship" speed="8.33" length="6.19" shape="134.61,676.61 140.77,677.13"/>
    </edge>
    <edge id=":1206624322_5" function="internal">
        <lane id=":1206624322_5_0" index="0" disallow="tram rail_urban rail rail_electric ship" speed="8.33" length="2.41" shape="134.61,676.61 135.77,677.53 136.12,678.39"/>
    </edge>
    <edge id=":1206624322_7" function="internal">
        <lane id=":1206624322_7_0" index="0" speed="8.33" length="2.41" shape="136.12,678.39 135.64,679.18 134.34,679.90"/>
    </edge>
    <edge id=":1206624326_0" function="internal">
        <lane id=":1206624326_0_0" index="0" disallow="tram rail_urban rail rail_electric ship" speed="8.33" length="6.16" shape="111.70,678.09 105.57,677.63"/>
    </edge>
    <edge id=":1206624326_1" function="internal">
        <lane id=":1206624326_1_0" index="0" allow="delivery bicycle pedestrian" speed="6.95" length="7.84" shape="111.70,678.09 110.39,677.58 109.52,676.31 109.10,674.27 109.12,671.46"/>
    </edge>
    <edge id=":1206624326_2" function="internal">
        <lane id=":1206624326_2_0" index="0" disallow="tram rail_urban rail rail_electric ship" speed="8.33" length="4.82" shape="111.70,678.09 110.54,677.17 110.19,676.31 110.67,675.52 111.97,674.80"/>
    </edge>
    <edge id=":1206624326_3" function="internal">
        <lane id=":1206624326_3_0" index="0" allow="delivery bicycle pedestrian" speed="6.95" length="5.00" shape="105.80,674.33 107.16,674.24 108.17,673.73 108.82,672.80 109.12,671.46"/>
    </edge>
    <edge id=":1206624326_4" function="internal">
        <lane id=":1206624326_4_0" index="0" disallow="tram rail_urban rail rail_electric ship" speed="8.33" length="6.19" shape="105.80,674.33 111.97,674.80"/>
    </edge>
    <edge id=":1206624326_5" function="internal">
        <lane id=":1206624326_5_0" index="0" disallow="tram rail_urban rail rail_electric ship" speed="8.33" length="4.82" shape="105.80,674.33 106.97,675.24 107.33,676.10 106.86,676.89 105.57,677.63"/>
    </edge>
    <edge id=":1208647794_0" function="internal">
        <lane id=":1208647794_0_0" index="0" disallow="tram rail_urban rail rail_electric ship" speed="8.33" length="5.31" shape="742.28,786.96 740.95,787.36 739.84,788.03 738.98,788.96 738.34,790.15"/>
    </edge>
    <edge id=":1208647794_1" function="internal">
        <lane id=":1208647794_1_0" index="0" disallow="tram rail_urban rail rail_electric ship" speed="8.33" length="4.82" shape="742.28,786.96 740.92,786.38 740.36,785.64 740.61,784.76 741.67,783.72"/>
    </edge>
    <edge id=":1208647794_2" function="internal">
        <lane id=":1208647794_2_0" index="0" disallow="tram rail_urban rail rail_electric ship" speed="8.33" length="4.91" shape="737.97,781.38 738.49,782.61 739.28,783.41 740.34,783.78 741.67,783.72"/>
    </edge>
    <edge id=":1208647794_3" function="internal">
        <lane id=":1208647794_3_0" index="0" disallow="tram rail_urban rail rail_electric ship" speed="8.33" length="9.05" shape="737.97,781.38 738.73,783.97 739.18,785.82 739.12,787.65 738.34,790.15"/>
    </edge>
    <edge id=":1210473765_0" function="internal">
        <lane id=":1210473765_0_0" index="0" disallow="tram rail_urban rail rail_electric ship" speed="6.95" length="5.96" shape="508.51,1220.72 507.67,1219.05 506.69,1217.91 505.55,1217.31 504.26,1217.23"/>
    </edge>
    <edge id=":1210473765_1" function="internal">
        <lane id=":1210473765_1_0" index="0" disallow="tram rail_urban rail rail_electric ship" speed="6.95" length="11.37" shape="508.51,1220.72 507.78,1217.60 508.30,1215.18 510.09,1213.46 513.13,1212.45"/>
    </edge>
    <edge id=":1210473765_2" function="internal">
        <lane id=":1210473765_2_0" index="0" allow="delivery bicycle pedestrian" speed="5.56" length="4.82" shape="508.51,1220.72 508.83,1219.27 509.44,1218.58 510.36,1218.67 511.58,1219.52"/>
    </edge>
    <edge id=":1210473765_3" function="internal">
        <lane id=":1210473765_3_0" index="0" allow="delivery bicycle pedestrian" speed="6.95" length="5.25" shape="513.72,1215.70 512.31,1216.16 511.49,1216.96 511.24,1218.07 511.58,1219.52"/>
    </edge>
    <edge id=":1210473765_4" function="internal">
        <lane id=":1210473765_4_0" index="0" disallow="tram rail_urban rail rail_electric ship" speed="8.33" length="9.58" shape="513.72,1215.70 504.26,1217.23"/>
    </edge>
    <edge id=":1210473765_5" function="internal">
        <lane id=":1210473765_5_0" index="0" disallow="tram rail_urban rail rail_electric ship" speed="8.33" length="2.41" shape="513.72,1215.70 512.35,1215.10 511.80,1214.36"/>
    </edge>
    <edge id=":1210473765_9" function="internal">
        <lane id=":1210473765_9_0" index="0" speed="8.33" length="2.41" shape="511.80,1214.36 512.06,1213.48 513.13,1212.45"/>
    </edge>
    <edge id=":1210473765_6" function="internal">
        <lane id=":1210473765_6_0" index="0" disallow="tram rail_urban rail rail_electric ship" speed="8.33" length="9.45" shape="503.80,1213.96 513.13,1212.45"/>
    </edge>
    <edge id=":1210473765_7" function="internal">
        <lane id=":1210473765_7_0" index="0" allow="delivery bicycle pedestrian" speed="6.95" length="4.80" shape="503.80,1213.96 506.28,1214.03 508.40,1214.98"/>
    </edge>
    <edge id=":1210473765_8" function="internal">
        <lane id=":1210473765_8_0" index="0" disallow="tram rail_urban rail rail_electric ship" speed="8.33" length="2.41" shape="503.80,1213.96 505.14,1214.61 505.66,1215.37"/>
    </edge>
    <edge id=":1210473765_10" function="internal">
        <lane id=":1210473765_10_0" index="0" speed="6.95" length="5.60" shape="508.40,1214.98 510.17,1216.81 511.58,1219.52"/>
    </edge>
    <edge id=":1210473765_11" function="internal">
        <lane id=":1210473765_11_0" index="0" speed="8.33" length="2.41" shape="505.66,1215.37 505.37,1216.24 504.26,1217.23"/>
    </edge>
    <edge id=":1210473819_0" function="internal">
        <lane id=":1210473819_0_0" index="0" allow="delivery bicycle pedestrian" speed="5.56" length="4.82" shape="547.17,1323.92 546.78,1325.35 546.13,1326.01 545.22,1325.88 544.04,1324.97"/>
    </edge>
    <edge id=":1217651538_0" function="internal">
        <lane id=":1217651538_0_0" index="0" disallow="tram rail_urban rail rail_electric ship" speed="6.95" length="5.12" shape="632.07,931.26 630.81,930.55 629.64,930.39 628.56,930.76 627.56,931.68"/>
    </edge>
    <edge id=":1217651538_1" function="internal">
        <lane id=":1217651538_1_0" index="0" disallow="tram rail_urban rail rail_electric ship" speed="6.95" length="10.45" shape="632.07,931.26 630.04,929.23 629.17,927.04 629.46,924.71 630.90,922.21"/>
    </edge>
    <edge id=":1217651538_2" function="internal">
        <lane id=":1217651538_2_0" index="0" allow="delivery bicycle pedestrian" speed="5.56" length="4.82" shape="632.07,931.26 631.57,929.86 631.74,928.95 632.56,928.54 634.05,928.62"/>
    </edge>
    <edge id=":1217651538_3" function="internal">
        <lane id=":1217651538_3_0" index="0" allow="delivery bicycle pedestrian" speed="6.95" length="5.03" shape="633.48,924.26 632.79,925.46 632.65,926.59 633.07,927.64 634.05,928.62"/>
    </edge>
    <edge id=":1217651538_4" function="internal">
        <lane id=":1217651538_4_0" index="0" disallow="tram rail_urban rail rail_electric ship" speed="8.33" length="9.49" shape="633.48,924.26 627.56,931.68"/>
    </edge>
    <edge id=":1217651538_5" function="internal">
        <lane id=":1217651538_5_0" index="0" disallow="tram rail_urban rail rail_electric ship" speed="8.33" length="2.41" shape="633.48,924.26 632.06,924.72 631.16,924.53"/>
    </edge>
    <edge id=":1217651538_9" function="internal">
        <lane id=":1217651538_9_0" index="0" speed="8.33" length="2.41" shape="631.16,924.53 630.77,923.69 630.90,922.21"/>
    </edge>
    <edge id=":1217651538_6" function="internal">
        <lane id=":1217651538_6_0" index="0" disallow="tram rail_urban rail rail_electric ship" speed="8.33" length="9.45" shape="625.00,929.60 630.90,922.21"/>
    </edge>
    <edge id=":1217651538_7" function="internal">
        <lane id=":1217651538_7_0" index="0" allow="delivery bicycle pedestrian" speed="6.95" length="5.09" shape="625.00,929.60 627.03,927.72 629.22,926.94"/>
    </edge>
    <edge id=":1217651538_8" function="internal">
        <lane id=":1217651538_8_0" index="0" disallow="tram rail_urban rail rail_electric ship" speed="8.33" length="2.41" shape="625.00,929.60 626.42,929.16 627.32,929.35"/>
    </edge>
    <edge id=":1217651538_10" function="internal">
        <lane id=":1217651538_10_0" index="0" speed="6.95" length="5.21" shape="629.22,926.94 631.56,927.24 634.05,928.62"/>
    </edge>
    <edge id=":1217651538_11" function="internal">
        <lane id=":1217651538_11_0" index="0" speed="8.33" length="2.41" shape="627.32,929.35 627.70,930.19 627.56,931.68"/>
    </edge>
    <edge id=":1264074481_0" function="internal">
        <lane id=":1264074481_0_0" index="0" disallow="tram rail_urban rail rail_electric ship" speed="13.89" length="6.09" shape="1646.27,472.26 1649.83,477.11"/>
        <lane id=":1264074481_0_1" index="1" disallow="tram rail_urban rail rail_electric ship" speed="13.89" length="6.09" shape="1643.59,474.19 1647.19,479.09"/>
        <lane id=":1264074481_0_2" index="2" disallow="tram rail_urban rail rail_electric ship" speed="13.89" length="6.09" shape="1640.90,476.11 1644.55,481.08"/>
    </edge>
    <edge id=":1264074481_3" function="internal">
        <lane id=":1264074481_3_0" index="0" disallow="tram rail_urban rail rail_electric ship" speed="13.89" length="6.42" shape="1640.21,480.46 1642.57,478.93 1644.52,478.20 1646.06,478.25 1647.19,479.09"/>
        <lane id=":1264074481_3_1" index="1" disallow="tram rail_urban rail rail_electric ship" speed="13.89" length="6.42" shape="1640.21,480.46 1641.41,479.80 1642.54,479.68 1643.58,480.11 1644.55,481.08"/>
    </edge>
    <edge id=":1266415965_0" function="internal">
        <lane id=":1266415965_0_0" index="0" disallow="tram rail_urban rail rail_electric ship" speed="11.11" length="5.03" shape="1865.78,1197.45 1866.76,1198.42 1867.81,1198.85 1868.93,1198.71 1870.13,1198.02"/>
    </edge>
    <edge id=":1266415965_1" function="internal">
        <lane id=":1266415965_1_0" index="0" allow="delivery bicycle pedestrian" speed="8.33" length="4.82" shape="1865.78,1197.45 1865.87,1198.93 1865.45,1199.76 1864.55,1199.92 1863.14,1199.43"/>
    </edge>
    <edge id=":1266415965_2" function="internal">
        <lane id=":1266415965_2_0" index="0" allow="delivery bicycle pedestrian" speed="11.11" length="5.11" shape="1862.71,1203.92 1863.62,1202.92 1864.00,1201.84 1863.84,1200.68 1863.14,1199.43"/>
    </edge>
    <edge id=":1266415965_3" function="internal">
        <lane id=":1266415965_3_0" index="0" disallow="tram rail_urban rail rail_electric ship" speed="13.89" length="9.45" shape="1862.71,1203.92 1870.13,1198.02"/>
        <lane id=":1266415965_3_1" index="1" disallow="tram rail_urban rail rail_electric ship" speed="13.89" length="9.45" shape="1864.77,1206.49 1872.17,1200.61"/>
        <lane id=":1266415965_3_2" index="2" disallow="tram rail_urban rail rail_electric ship" speed="13.89" length="9.45" shape="1866.84,1209.06 1874.21,1203.21"/>
    </edge>
    <edge id=":1275468904_0" function="internal">
        <lane id=":1275468904_0_0" index="0" disallow="tram rail_urban rail rail_electric ship" speed="13.89" length="5.17" shape="1480.02,1145.73 1477.89,1141.03"/>
    </edge>
    <edge id=":1275468904_1" function="internal">
        <lane id=":1275468904_1_0" index="0" disallow="tram rail_urban rail rail_electric ship" speed="13.89" length="2.41" shape="1480.02,1145.73 1480.24,1144.26 1480.81,1143.53"/>
    </edge>
    <edge id=":1275468904_4" function="internal">
        <lane id=":1275468904_4_0" index="0" speed="13.89" length="2.41" shape="1480.81,1143.53 1481.73,1143.55 1483.01,1144.32"/>
    </edge>
    <edge id=":1275468904_2" function="internal">
        <lane id=":1275468904_2_0" index="0" disallow="tram rail_urban rail rail_electric ship" speed="13.89" length="5.06" shape="1480.92,1139.71 1483.01,1144.32"/>
    </edge>
    <edge id=":1275468904_3" function="internal">
        <lane id=":1275468904_3_0" index="0" disallow="tram rail_urban rail rail_electric ship" speed="13.89" length="2.41" shape="1480.92,1139.71 1480.65,1141.18 1480.06,1141.88"/>
    </edge>
    <edge id=":1275468904_5" function="internal">
        <lane id=":1275468904_5_0" index="0" speed="13.89" length="2.41" shape="1480.06,1141.88 1479.14,1141.83 1477.89,1141.03"/>
    </edge>
    <edge id=":1275468917_0" function="internal">
        <lane id=":1275468917_0_0" index="0" allow="delivery bicycle pedestrian" speed="8.33" length="4.82" shape="1920.31,1173.94 1921.79,1173.82 1922.63,1174.21 1922.81,1175.12 1922.35,1176.53"/>
    </edge>
    <edge id=":1289731062_0" function="internal">
        <lane id=":1289731062_0_0" index="0" disallow="tram rail_urban rail rail_electric ship" speed="11.11" length="33.27" shape="1724.33,1241.32 1715.74,1242.66 1706.19,1244.84 1697.64,1247.20 1692.03,1249.06"/>
    </edge>
    <edge id=":1289731062_1" function="internal">
        <lane id=":1289731062_1_0" index="0" disallow="tram rail_urban rail rail_electric ship" speed="13.89" length="33.74" shape="1724.33,1241.32 1690.93,1245.71"/>
        <lane id=":1289731062_1_1" index="1" disallow="tram rail_urban rail rail_electric ship" speed="13.89" length="33.74" shape="1724.02,1238.03 1690.51,1242.44"/>
    </edge>
    <edge id=":1289731063_0" function="internal">
        <lane id=":1289731063_0_0" index="0" disallow="tram rail_urban rail rail_electric ship" speed="8.33" length="8.97" shape="1675.99,1273.42 1672.04,1265.37"/>
    </edge>
    <edge id=":1289731063_1" function="internal">
        <lane id=":1289731063_1_0" index="0" disallow="tram rail_urban rail rail_electric ship" speed="8.33" length="4.82" shape="1675.99,1273.42 1676.18,1271.95 1676.73,1271.21 1677.65,1271.21 1678.94,1271.94"/>
    </edge>
    <edge id=":1289731063_2" function="internal">
        <lane id=":1289731063_2_0" index="0" disallow="tram rail_urban rail rail_electric ship" speed="8.33" length="8.95" shape="1678.86,1263.25 1678.39,1265.88 1677.98,1267.76 1678.04,1269.55 1678.94,1271.94"/>
    </edge>
    <edge id=":1289731063_3" function="internal">
        <lane id=":1289731063_3_0" index="0" disallow="tram rail_urban rail rail_electric ship" speed="8.33" length="14.34" shape="1678.86,1263.25 1677.87,1268.23 1676.40,1270.24 1674.46,1269.29 1672.04,1265.37"/>
    </edge>
    <edge id=":1289731063_4" function="internal">
        <lane id=":1289731063_4_0" index="0" disallow="tram rail_urban rail rail_electric ship" speed="8.33" length="8.94" shape="1675.00,1263.91 1678.94,1271.94"/>
    </edge>
    <edge id=":1289731063_5" function="internal">
        <lane id=":1289731063_5_0" index="0" disallow="tram rail_urban rail rail_electric ship" speed="8.33" length="4.82" shape="1675.00,1263.91 1674.81,1265.39 1674.25,1266.12 1673.33,1266.12 1672.04,1265.37"/>
    </edge>
    <edge id=":1371317063_0" function="internal">
        <lane id=":1371317063_0_0" index="0" disallow="tram rail_urban rail rail_electric ship" speed="8.33" length="5.69" shape="777.20,718.12 772.30,715.22"/>
    </edge>
    <edge id=":1371317063_1" function="internal">
        <lane id=":1371317063_1_0" index="0" disallow="tram rail_urban rail rail_electric ship" speed="8.33" length="4.82" shape="777.20,718.12 776.54,716.79 776.60,715.86 777.37,715.36 778.85,715.26"/>
    </edge>
    <edge id=":1371317063_2" function="internal">
        <lane id=":1371317063_2_0" index="0" disallow="tram rail_urban rail rail_electric ship" speed="8.33" length="5.64" shape="773.99,712.39 778.85,715.26"/>
    </edge>
    <edge id=":1371317063_3" function="internal">
        <lane id=":1371317063_3_0" index="0" disallow="tram rail_urban rail rail_electric ship" speed="8.33" length="4.82" shape="773.99,712.39 774.63,713.73 774.56,714.65 773.79,715.15 772.30,715.22"/>
    </edge>
    <edge id=":1387903273_0" function="internal">
        <lane id=":1387903273_0_0" index="0" disallow="tram rail_urban rail rail_electric ship" speed="8.33" length="6.58" shape="122.39,808.23 123.98,809.39 125.15,810.19 126.42,810.57 128.29,810.49"/>
    </edge>
    <edge id=":1387903273_1" function="internal">
        <lane id=":1387903273_1_0" index="0" disallow="tram rail_urban rail rail_electric ship" speed="8.33" length="6.05" shape="122.39,808.23 123.79,809.45 124.17,810.56 123.55,811.55 121.92,812.43"/>
    </edge>
    <edge id=":1419121873_0" function="internal">
        <lane id=":1419121873_0_0" index="0" disallow="tram rail_urban rail rail_electric ship" speed="8.33" length="9.46" shape="367.14,410.57 366.36,419.99"/>
    </edge>
    <edge id=":1419121873_1" function="internal">
        <lane id=":1419121873_1_0" index="0" allow="delivery bicycle pedestrian" speed="8.33" length="5.15" shape="367.14,410.57 366.50,413.31 365.14,415.20"/>
    </edge>
    <edge id=":1419121873_2" function="internal">
        <lane id=":1419121873_2_0" index="0" disallow="tram rail_urban rail rail_electric ship" speed="8.33" length="2.41" shape="367.14,410.57 366.21,411.73 365.35,412.07"/>
    </edge>
    <edge id=":1419121873_9" function="internal">
        <lane id=":1419121873_9_0" index="0" speed="8.33" length="5.15" shape="365.14,415.20 363.05,416.23 360.23,416.40"/>
    </edge>
    <edge id=":1419121873_10" function="internal">
        <lane id=":1419121873_10_0" index="0" speed="8.33" length="2.41" shape="365.35,412.07 364.57,411.59 363.85,410.28"/>
    </edge>
    <edge id=":1419121873_3" function="internal">
        <lane id=":1419121873_3_0" index="0" disallow="tram rail_urban rail rail_electric ship" speed="8.33" length="5.00" shape="360.50,413.11 361.87,413.03 362.88,412.53 363.54,411.61 363.85,410.28"/>
    </edge>
    <edge id=":1419121873_4" function="internal">
        <lane id=":1419121873_4_0" index="0" disallow="tram rail_urban rail rail_electric ship" speed="8.33" length="10.30" shape="360.50,413.11 363.25,413.73 365.15,415.09 366.18,417.18 366.36,419.99"/>
    </edge>
    <edge id=":1419121873_5" function="internal">
        <lane id=":1419121873_5_0" index="0" allow="delivery bicycle pedestrian" speed="8.33" length="4.82" shape="360.50,413.11 361.67,414.03 362.01,414.89 361.53,415.68 360.23,416.40"/>
    </edge>
    <edge id=":1419121873_6" function="internal">
        <lane id=":1419121873_6_0" index="0" allow="delivery bicycle pedestrian" speed="8.33" length="4.99" shape="363.07,419.74 362.99,418.37 362.48,417.36 361.56,416.70 360.23,416.40"/>
    </edge>
    <edge id=":1419121873_7" function="internal">